*SPEF "ieee 1481-1999"
*DESIGN "twos_complement"
*DATE "19:26:55 Friday April 25, 2025"
*VENDOR "The OpenROAD Project"
*PROGRAM "OpenROAD"
*VERSION "b16bda7e82721d10566ff7e2b68f1ff0be9f9e38"
*DESIGN_FLOW "NAME_SCOPE LOCAL" "PIN_CAP NONE"
*DIVIDER /
*DELIMITER :
*BUS_DELIMITER []
*T_UNIT 1 NS
*C_UNIT 1 PF
*R_UNIT 1 OHM
*L_UNIT 1 HENRY

*NAME_MAP
*3 in[0]
*4 in[1]
*5 in[2]
*6 in[3]
*7 in[4]
*8 in[5]
*9 in[6]
*10 in[7]
*11 out[0]
*12 out[1]
*13 out[2]
*14 out[3]
*15 out[4]
*16 out[5]
*17 out[6]
*18 out[7]
*19 _00_
*20 _01_
*21 _02_
*22 _03_
*23 _04_
*24 _05_
*25 _06_
*26 _07_
*27 _08_
*28 _09_
*29 net1
*30 net10
*31 net11
*32 net12
*33 net13
*34 net14
*35 net15
*36 net16
*37 net2
*38 net3
*39 net4
*40 net5
*41 net6
*42 net7
*43 net8
*44 net9
*45 FILLER_0_0_21
*46 FILLER_0_0_27
*47 FILLER_0_0_29
*48 FILLER_0_0_37
*49 FILLER_0_0_9
*50 FILLER_0_10_18
*51 FILLER_0_10_26
*52 FILLER_0_10_29
*53 FILLER_0_10_33
*54 FILLER_0_10_41
*55 FILLER_0_10_6
*56 FILLER_0_11_15
*57 FILLER_0_11_22
*58 FILLER_0_11_3
*59 FILLER_0_11_34
*60 FILLER_0_11_41
*61 FILLER_0_11_47
*62 FILLER_0_12_21
*63 FILLER_0_12_27
*64 FILLER_0_12_29
*65 FILLER_0_12_33
*66 FILLER_0_12_39
*67 FILLER_0_12_9
*68 FILLER_0_1_15
*69 FILLER_0_1_23
*70 FILLER_0_1_27
*71 FILLER_0_1_3
*72 FILLER_0_1_39
*73 FILLER_0_1_47
*74 FILLER_0_2_15
*75 FILLER_0_2_24
*76 FILLER_0_2_29
*77 FILLER_0_2_3
*78 FILLER_0_2_41
*79 FILLER_0_2_47
*80 FILLER_0_3_14
*81 FILLER_0_3_26
*82 FILLER_0_3_30
*83 FILLER_0_3_36
*84 FILLER_0_4_15
*85 FILLER_0_4_26
*86 FILLER_0_4_29
*87 FILLER_0_4_3
*88 FILLER_0_4_41
*89 FILLER_0_4_47
*90 FILLER_0_5_14
*91 FILLER_0_5_18
*92 FILLER_0_5_30
*93 FILLER_0_5_42
*94 FILLER_0_5_6
*95 FILLER_0_6_15
*96 FILLER_0_6_22
*97 FILLER_0_6_29
*98 FILLER_0_6_3
*99 FILLER_0_6_41
*100 FILLER_0_6_47
*101 FILLER_0_7_18
*102 FILLER_0_7_30
*103 FILLER_0_7_42
*104 FILLER_0_7_6
*105 FILLER_0_8_13
*106 FILLER_0_8_25
*107 FILLER_0_8_29
*108 FILLER_0_8_41
*109 FILLER_0_9_20
*110 FILLER_0_9_3
*111 FILLER_0_9_32
*112 FILLER_0_9_44
*113 PHY_EDGE_ROW_0_Left_13
*114 PHY_EDGE_ROW_0_Right_0
*115 PHY_EDGE_ROW_10_Left_23
*116 PHY_EDGE_ROW_10_Right_10
*117 PHY_EDGE_ROW_11_Left_24
*118 PHY_EDGE_ROW_11_Right_11
*119 PHY_EDGE_ROW_12_Left_25
*120 PHY_EDGE_ROW_12_Right_12
*121 PHY_EDGE_ROW_1_Left_14
*122 PHY_EDGE_ROW_1_Right_1
*123 PHY_EDGE_ROW_2_Left_15
*124 PHY_EDGE_ROW_2_Right_2
*125 PHY_EDGE_ROW_3_Left_16
*126 PHY_EDGE_ROW_3_Right_3
*127 PHY_EDGE_ROW_4_Left_17
*128 PHY_EDGE_ROW_4_Right_4
*129 PHY_EDGE_ROW_5_Left_18
*130 PHY_EDGE_ROW_5_Right_5
*131 PHY_EDGE_ROW_6_Left_19
*132 PHY_EDGE_ROW_6_Right_6
*133 PHY_EDGE_ROW_7_Left_20
*134 PHY_EDGE_ROW_7_Right_7
*135 PHY_EDGE_ROW_8_Left_21
*136 PHY_EDGE_ROW_8_Right_8
*137 PHY_EDGE_ROW_9_Left_22
*138 PHY_EDGE_ROW_9_Right_9
*139 TAP_TAPCELL_ROW_0_26
*140 TAP_TAPCELL_ROW_10_31
*141 TAP_TAPCELL_ROW_12_32
*142 TAP_TAPCELL_ROW_2_27
*143 TAP_TAPCELL_ROW_4_28
*144 TAP_TAPCELL_ROW_6_29
*145 TAP_TAPCELL_ROW_8_30
*146 _10_
*147 _11_
*148 _12_
*149 _13_
*150 _14_
*151 _15_
*152 _16_
*153 _17_
*154 _18_
*155 _19_
*156 _20_
*157 _21_
*158 _22_
*159 _23_
*160 _24_
*161 _25_
*162 _26_
*163 _27_
*164 input1
*165 input2
*166 input3
*167 input4
*168 input5
*169 input6
*170 input7
*171 input8
*172 output10
*173 output11
*174 output12
*175 output13
*176 output14
*177 output15
*178 output16
*179 output9

*PORTS
in[0] I
in[1] I
in[2] I
in[3] I
in[4] I
in[5] I
in[6] I
in[7] I
out[0] O
out[1] O
out[2] O
out[3] O
out[4] O
out[5] O
out[6] O
out[7] O

*D_NET *3 0.00114897
*CONN
*P in[0] I
*I *164:A I *D sky130_fd_sc_hd__buf_1
*CAP
1 in[0] 0.000574485
2 *164:A 0
3 *3:11 0.000574485
4 *3:11 *4:19 0
*RES
1 in[0] *3:11 31.4739 
2 *3:11 *164:A 23 
*END

*D_NET *4 0.000866747
*CONN
*P in[1] I
*I *165:A I *D sky130_fd_sc_hd__buf_1
*CAP
1 in[1] 0.000433373
2 *165:A 0
3 *4:19 0.000433373
4 *4:19 *166:A 0
5 *3:11 *4:19 0
*RES
1 in[1] *4:19 28.7327 
2 *4:19 *165:A 23 
*END

*D_NET *5 0.000627093
*CONN
*P in[2] I
*I *166:A I *D sky130_fd_sc_hd__buf_1
*CAP
1 in[2] 0.000313547
2 *166:A 0.000313547
3 *166:A *6:17 0
4 *4:19 *166:A 0
*RES
1 in[2] *166:A 49.8062 
*END

*D_NET *6 0.000662058
*CONN
*P in[3] I
*I *167:A I *D sky130_fd_sc_hd__clkbuf_1
*CAP
1 in[3] 0.000331029
2 *167:A 0
3 *6:17 0.000331029
4 *6:17 *7:17 0
5 *166:A *6:17 0
*RES
1 in[3] *6:17 27.1584 
2 *6:17 *167:A 23 
*END

*D_NET *7 0.000650175
*CONN
*P in[4] I
*I *168:A I *D sky130_fd_sc_hd__buf_1
*CAP
1 in[4] 0.000325087
2 *168:A 0
3 *7:17 0.000325087
4 *7:17 *8:17 0
5 *7:17 *29:20 0
6 *6:17 *7:17 0
*RES
1 in[4] *7:17 27.1584 
2 *7:17 *168:A 23 
*END

*D_NET *8 0.000761607
*CONN
*P in[5] I
*I *169:A I *D sky130_fd_sc_hd__buf_1
*CAP
1 in[5] 0.000380803
2 *169:A 0
3 *8:17 0.000380803
4 *8:17 *170:A 0
5 *8:17 *29:20 0
6 *7:17 *8:17 0
*RES
1 in[5] *8:17 28.567 
2 *8:17 *169:A 23 
*END

*D_NET *9 0.000603153
*CONN
*P in[6] I
*I *170:A I *D sky130_fd_sc_hd__buf_1
*CAP
1 in[6] 0.000301577
2 *170:A 0.000301577
3 *170:A *10:11 0
4 *8:17 *170:A 0
*RES
1 in[6] *170:A 49.8062 
*END

*D_NET *10 0.00130197
*CONN
*P in[7] I
*I *171:A I *D sky130_fd_sc_hd__buf_1
*CAP
1 in[7] 0.000650983
2 *171:A 0
3 *10:11 0.000650983
4 *170:A *10:11 0
*RES
1 in[7] *10:11 32.0837 
2 *10:11 *171:A 23 
*END

*D_NET *11 0.00123536
*CONN
*P out[0] O
*I *179:X O *D sky130_fd_sc_hd__buf_2
*CAP
1 out[0] 0.00029892
2 *179:X 0.000318757
3 *11:8 0.000617678
4 out[0] out[1] 0
*RES
1 *179:X *11:8 44.6596 
2 *11:8 out[0] 9.10133 
*END

*D_NET *12 0.00046494
*CONN
*P out[1] O
*I *172:X O *D sky130_fd_sc_hd__buf_2
*CAP
1 out[1] 0.00023247
2 *172:X 0.00023247
3 out[1] out[2] 0
4 out[0] out[1] 0
*RES
1 *172:X out[1] 47.0789 
*END

*D_NET *13 0.000463691
*CONN
*P out[2] O
*I *173:X O *D sky130_fd_sc_hd__buf_2
*CAP
1 out[2] 0.000231846
2 *173:X 0.000231846
3 out[2] out[3] 0
4 out[2] *30:14 0
5 out[1] out[2] 0
*RES
1 *173:X out[2] 47.0789 
*END

*D_NET *14 0.000637482
*CONN
*P out[3] O
*I *174:X O *D sky130_fd_sc_hd__buf_2
*CAP
1 out[3] 0.00029836
2 *174:X 0.00029836
3 out[3] out[4] 0
4 out[3] *36:12 4.07627e-05
5 out[2] out[3] 0
*RES
1 *174:X out[3] 48.4875 
*END

*D_NET *15 0.000467104
*CONN
*P out[4] O
*I *175:X O *D sky130_fd_sc_hd__buf_2
*CAP
1 out[4] 0.000229242
2 *175:X 0.000229242
3 out[4] out[5] 0
4 out[4] *36:12 8.62073e-06
5 out[3] out[4] 0
*RES
1 *175:X out[4] 47.0789 
*END

*D_NET *16 0.000632469
*CONN
*P out[5] O
*I *176:X O *D sky130_fd_sc_hd__buf_2
*CAP
1 out[5] 0.000294605
2 *176:X 0.000294605
3 out[5] out[6] 0
4 out[5] *36:12 4.32584e-05
5 out[4] out[5] 0
*RES
1 *176:X out[5] 48.4875 
*END

*D_NET *17 0.000869919
*CONN
*P out[6] O
*I *177:X O *D sky130_fd_sc_hd__buf_2
*CAP
1 out[6] 0.000434959
2 *177:X 0.000434959
3 out[6] out[7] 0
4 out[5] out[6] 0
*RES
1 *177:X out[6] 47.68 
*END

*D_NET *18 0.00110166
*CONN
*P out[7] O
*I *178:X O *D sky130_fd_sc_hd__clkbuf_4
*CAP
1 out[7] 0.000175108
2 *178:X 0.000375724
3 *18:8 0.000550832
4 out[6] out[7] 0
*RES
1 *178:X *18:8 45.7161 
2 *18:8 out[7] 8.672 
*END

*D_NET *19 0.00547696
*CONN
*I *147:B I *D sky130_fd_sc_hd__xnor2_1
*I *162:A I *D sky130_fd_sc_hd__nor2_1
*I *146:Y O *D sky130_fd_sc_hd__nor2_1
*CAP
1 *147:B 0.000218755
2 *162:A 0
3 *146:Y 8.62996e-05
4 *19:16 0.000866172
5 *19:12 0.00122878
6 *19:8 0.000230155
7 *147:B *147:A 0.00014255
8 *19:8 *41:38 7.03869e-05
9 *19:12 *147:A 7.91871e-05
10 *19:16 *150:A_N 0.000190083
11 *19:16 *156:B 6.7177e-06
12 *19:16 *156:D 0.000271392
13 *19:16 *21:22 0.000845918
14 *19:16 *21:24 0.000337002
15 *19:16 *21:63 0.000275473
16 *19:16 *23:8 0
17 *19:16 *24:10 0.00042646
18 *19:16 *28:10 0.000182148
19 *19:16 *41:23 7.76364e-06
20 *19:16 *41:38 1.17152e-05
*RES
1 *146:Y *19:8 39.9057 
2 *19:8 *19:12 17.5271 
3 *19:12 *19:16 40.4993 
4 *19:16 *162:A 38 
5 *19:12 *147:B 27.4329 
*END

*D_NET *20 0.00245502
*CONN
*I *150:A_N I *D sky130_fd_sc_hd__and2b_1
*I *148:X O *D sky130_fd_sc_hd__o31a_1
*CAP
1 *150:A_N 0.000284504
2 *148:X 0.000467154
3 *20:8 0.000751658
4 *150:A_N *21:22 2.96051e-05
5 *150:A_N *23:8 0.000322726
6 *20:8 *151:A 0.000337375
7 *20:8 *32:8 7.1915e-05
8 *19:16 *150:A_N 0.000190083
*RES
1 *148:X *20:8 47.6736 
2 *20:8 *150:A_N 46.5964 
*END

*D_NET *21 0.00865841
*CONN
*I *157:A3 I *D sky130_fd_sc_hd__o31ai_1
*I *152:B I *D sky130_fd_sc_hd__nor2_1
*I *150:B I *D sky130_fd_sc_hd__and2b_1
*I *153:B I *D sky130_fd_sc_hd__and2_1
*I *156:D I *D sky130_fd_sc_hd__or4_1
*I *149:X O *D sky130_fd_sc_hd__or4_2
*CAP
1 *157:A3 0.000281362
2 *152:B 0
3 *150:B 2.32701e-05
4 *153:B 0.000166134
5 *156:D 0.000211587
6 *149:X 0.000423738
7 *21:69 0.00013408
8 *21:63 0.00074967
9 *21:24 0.000585407
10 *21:22 0.000638472
11 *21:12 0.00116548
12 *150:B *154:A 5.3304e-05
13 *150:B *40:6 5.3304e-05
14 *153:B *153:A 5.50106e-05
15 *153:B *24:10 0.000185434
16 *153:B *44:6 7.43025e-06
17 *156:D *156:A 0.000180218
18 *156:D *40:10 0
19 *156:D *42:27 0.000181925
20 *157:A3 *41:38 0.000160051
21 *21:12 *160:B 3.33457e-05
22 *21:12 *36:8 0.000270398
23 *21:12 *43:14 2.98648e-05
24 *21:22 *22:8 0.000536703
25 *21:22 *23:8 0
26 *21:22 *33:8 9.58714e-05
27 *21:22 *41:38 0.000100533
28 *21:24 *155:B 0
29 *21:24 *40:10 0
30 *21:63 *23:8 0
31 *21:63 *41:38 0.000324796
32 *21:69 *152:A 2.95125e-05
33 *21:69 *23:8 0.000222123
34 *21:69 *41:38 0
35 *150:A_N *21:22 2.96051e-05
36 *19:16 *156:D 0.000271392
37 *19:16 *21:22 0.000845918
38 *19:16 *21:24 0.000337002
39 *19:16 *21:63 0.000275473
*RES
1 *149:X *21:12 45.4571 
2 *21:12 *21:22 42.6564 
3 *21:22 *21:24 4.72286 
4 *21:24 *156:D 43.7171 
5 *21:24 *153:B 41.6457 
6 *21:22 *150:B 38.6214 
7 *21:12 *21:63 22.9543 
8 *21:63 *21:69 33.6664 
9 *21:69 *152:B 23 
10 *21:63 *157:A3 26.9771 
*END

*D_NET *22 0.0026939
*CONN
*I *151:A I *D sky130_fd_sc_hd__clkbuf_1
*I *150:X O *D sky130_fd_sc_hd__and2b_1
*CAP
1 *151:A 0.000206619
2 *150:X 0.000170995
3 *22:8 0.000377615
4 *151:A *32:8 0.000527888
5 *22:8 *41:38 0.000536703
6 *20:8 *151:A 0.000337375
7 *21:22 *22:8 0.000536703
*RES
1 *150:X *22:8 45.1879 
2 *22:8 *151:A 45.3121 
*END

*D_NET *23 0.00564569
*CONN
*I *154:A I *D sky130_fd_sc_hd__nor2_1
*I *155:B I *D sky130_fd_sc_hd__xnor2_1
*I *152:Y O *D sky130_fd_sc_hd__nor2_1
*CAP
1 *154:A 0.000232175
2 *155:B 0.000369783
3 *152:Y 0
4 *23:8 0.00119686
5 *23:6 0.000594899
6 *154:A *154:B 0.000359264
7 *154:A *33:8 0.000159824
8 *154:A *40:6 0.000353219
9 *155:B *155:A 5.50049e-05
10 *155:B *34:10 9.68428e-05
11 *155:B *40:10 0.000139647
12 *155:B *40:34 5.24393e-05
13 *23:8 *152:A 0.000104869
14 *23:8 *40:34 0.00133271
15 *150:A_N *23:8 0.000322726
16 *150:B *154:A 5.3304e-05
17 *19:16 *23:8 0
18 *21:22 *23:8 0
19 *21:24 *155:B 0
20 *21:63 *23:8 0
21 *21:69 *23:8 0.000222123
*RES
1 *152:Y *23:6 38 
2 *23:6 *23:8 19.1607 
3 *23:8 *155:B 45.0429 
4 *23:8 *154:A 46.265 
*END

*D_NET *24 0.0023419
*CONN
*I *154:B I *D sky130_fd_sc_hd__nor2_1
*I *153:X O *D sky130_fd_sc_hd__and2_1
*CAP
1 *154:B 6.62777e-05
2 *153:X 0.000281109
3 *24:10 0.000347386
4 *154:B *33:8 0.000359264
5 *24:10 *41:23 9.98891e-05
6 *24:10 *41:38 0.000116413
7 *24:10 *44:6 0.000100403
8 *153:B *24:10 0.000185434
9 *154:A *154:B 0.000359264
10 *19:16 *24:10 0.00042646
*RES
1 *153:X *24:10 46.7829 
2 *24:10 *154:B 41.9564 
*END

*D_NET *25 0.00297821
*CONN
*I *160:B I *D sky130_fd_sc_hd__xor2_1
*I *158:A I *D sky130_fd_sc_hd__and2_1
*I *156:X O *D sky130_fd_sc_hd__or4_1
*CAP
1 *160:B 0.000435243
2 *158:A 7.88327e-05
3 *156:X 0.000631234
4 *25:10 0.00114531
5 *160:B *41:38 0
6 *160:B *43:14 0.000293398
7 *25:10 *41:23 0
8 *25:10 *41:38 0
9 *25:10 *43:14 0.000360851
10 *21:12 *160:B 3.33457e-05
*RES
1 *156:X *25:10 49.9314 
2 *25:10 *158:A 39.0979 
3 *25:10 *160:B 47.3629 
*END

*D_NET *26 0.00371033
*CONN
*I *158:B I *D sky130_fd_sc_hd__and2_1
*I *157:Y O *D sky130_fd_sc_hd__o31ai_1
*CAP
1 *158:B 0
2 *157:Y 0
3 *26:14 0.00102387
4 *26:6 0.00102387
5 *26:14 *27:6 0.000644507
6 *26:14 *42:27 0.00101809
7 *26:14 *44:10 0
*RES
1 *157:Y *26:6 38 
2 *26:6 *26:14 37.2679 
3 *26:14 *158:B 23 
*END

*D_NET *27 0.0019707
*CONN
*I *159:A I *D sky130_fd_sc_hd__clkbuf_1
*I *158:X O *D sky130_fd_sc_hd__and2_1
*CAP
1 *159:A 0
2 *158:X 0.000628117
3 *27:6 0.000628117
4 *27:6 *35:8 6.99589e-05
5 *26:14 *27:6 0.000644507
*RES
1 *158:X *27:6 35.0557 
2 *27:6 *159:A 23 
*END

*D_NET *28 0.00218106
*CONN
*I *162:B I *D sky130_fd_sc_hd__nor2_1
*I *161:X O *D sky130_fd_sc_hd__and2_1
*CAP
1 *162:B 0
2 *161:X 0.000378545
3 *28:10 0.000378545
4 *28:10 *156:B 0.000110913
5 *28:10 *41:12 0.000577865
6 *28:10 *42:12 6.63698e-05
7 *28:10 *44:6 0.000486676
8 *19:16 *28:10 0.000182148
*RES
1 *161:X *28:10 49.89 
2 *28:10 *162:B 38 
*END

*D_NET *29 0.0052695
*CONN
*I *146:B I *D sky130_fd_sc_hd__nor2_1
*I *149:B I *D sky130_fd_sc_hd__or4_2
*I *148:A2 I *D sky130_fd_sc_hd__o31a_1
*I *163:A I *D sky130_fd_sc_hd__clkbuf_1
*I *161:B I *D sky130_fd_sc_hd__and2_1
*I *164:X O *D sky130_fd_sc_hd__buf_1
*CAP
1 *146:B 0.000410819
2 *149:B 5.05574e-05
3 *148:A2 3.2539e-05
4 *163:A 5.68597e-05
5 *161:B 0
6 *164:X 7.97336e-05
7 *29:20 0.000691213
8 *29:12 0.00072921
9 *29:10 0.000397518
10 *29:8 0.000775196
11 *146:B *146:A 0.000498046
12 *148:A2 *148:A3 2.93845e-05
13 *149:B *149:D 1.94812e-05
14 *163:A *41:12 0.0001129
15 *29:8 *37:8 3.5664e-05
16 *29:10 *148:A3 3.3123e-05
17 *29:10 *149:D 8.11552e-05
18 *29:10 *37:8 7.75329e-06
19 *29:10 *37:10 0.000104569
20 *29:10 *38:10 7.55491e-05
21 *29:12 *148:A3 7.83873e-05
22 *29:12 *149:D 0.00016046
23 *29:12 *37:16 2.13834e-05
24 *29:12 *37:20 4.6318e-06
25 *29:20 *149:D 1.14452e-05
26 *29:20 *37:20 0.000537055
27 *29:20 *39:10 0.000141879
28 *29:20 *41:12 9.29895e-05
29 *29:20 *43:14 0
30 *7:17 *29:20 0
31 *8:17 *29:20 0
*RES
1 *164:X *29:8 39.5536 
2 *29:8 *29:10 7.18786 
3 *29:10 *29:12 2.25786 
4 *29:12 *29:20 31.3021 
5 *29:20 *161:B 23 
6 *29:20 *163:A 24.5743 
7 *29:12 *148:A2 38.6214 
8 *29:10 *149:B 38.6214 
9 *29:8 *146:B 46.265 
*END

*D_NET *30 0.00627179
*CONN
*I *172:A I *D sky130_fd_sc_hd__buf_2
*I *162:Y O *D sky130_fd_sc_hd__nor2_1
*CAP
1 *172:A 0
2 *162:Y 0.00063641
3 *30:14 0.000899066
4 *30:8 0.00153548
5 *30:14 *35:12 0.00094194
6 *30:14 *36:12 0.00158062
7 *30:14 *44:10 0.000678277
8 out[2] *30:14 0
*RES
1 *162:Y *30:8 46.2443 
2 *30:8 *30:14 46.175 
3 *30:14 *172:A 23 
*END

*D_NET *31 0.00034649
*CONN
*I *173:A I *D sky130_fd_sc_hd__buf_2
*I *147:Y O *D sky130_fd_sc_hd__xnor2_1
*CAP
1 *173:A 0.000173245
2 *147:Y 0.000173245
3 *173:A *147:A 0
*RES
1 *147:Y *173:A 48.9 
*END

*D_NET *32 0.00310354
*CONN
*I *174:A I *D sky130_fd_sc_hd__buf_2
*I *151:X O *D sky130_fd_sc_hd__clkbuf_1
*CAP
1 *174:A 0
2 *151:X 0.00125187
3 *32:8 0.00125187
4 *151:A *32:8 0.000527888
5 *20:8 *32:8 7.1915e-05
*RES
1 *151:X *32:8 39.24 
2 *32:8 *174:A 23 
*END

*D_NET *33 0.00222461
*CONN
*I *175:A I *D sky130_fd_sc_hd__buf_2
*I *154:Y O *D sky130_fd_sc_hd__nor2_1
*CAP
1 *175:A 0
2 *154:Y 0.000800791
3 *33:8 0.000800791
4 *33:8 *40:6 8.06804e-06
5 *154:A *33:8 0.000159824
6 *154:B *33:8 0.000359264
7 *21:22 *33:8 9.58714e-05
*RES
1 *154:Y *33:8 36.9821 
2 *33:8 *175:A 23 
*END

*D_NET *34 0.00193035
*CONN
*I *176:A I *D sky130_fd_sc_hd__buf_2
*I *155:Y O *D sky130_fd_sc_hd__xnor2_1
*CAP
1 *176:A 0
2 *155:Y 0.000845819
3 *34:10 0.000845819
4 *34:10 *36:12 0.000141869
5 *155:B *34:10 9.68428e-05
*RES
1 *155:Y *34:10 49.1029 
2 *34:10 *176:A 38 
*END

*D_NET *35 0.00302255
*CONN
*I *177:A I *D sky130_fd_sc_hd__buf_2
*I *159:X O *D sky130_fd_sc_hd__clkbuf_1
*CAP
1 *177:A 0
2 *159:X 0.000128897
3 *35:12 0.000473754
4 *35:8 0.000602651
5 *35:12 *36:12 0.000154282
6 *35:12 *42:27 0
7 *35:12 *44:10 0.000651064
8 *27:6 *35:8 6.99589e-05
9 *30:14 *35:12 0.00094194
*RES
1 *159:X *35:8 39.5743 
2 *35:8 *35:12 31.3436 
3 *35:12 *177:A 23 
*END

*D_NET *36 0.00586974
*CONN
*I *178:A I *D sky130_fd_sc_hd__clkbuf_4
*I *160:X O *D sky130_fd_sc_hd__xor2_1
*CAP
1 *178:A 0
2 *160:X 0.000929733
3 *36:12 0.000885231
4 *36:8 0.00181496
5 out[3] *36:12 4.07627e-05
6 out[4] *36:12 8.62073e-06
7 out[5] *36:12 4.32584e-05
8 *21:12 *36:8 0.000270398
9 *30:14 *36:12 0.00158062
10 *34:10 *36:12 0.000141869
11 *35:12 *36:12 0.000154282
*RES
1 *160:X *36:8 49.5793 
2 *36:8 *36:12 39.795 
3 *36:12 *178:A 23 
*END

*D_NET *37 0.00407086
*CONN
*I *146:A I *D sky130_fd_sc_hd__nor2_1
*I *149:A I *D sky130_fd_sc_hd__or4_2
*I *148:A1 I *D sky130_fd_sc_hd__o31a_1
*I *161:A I *D sky130_fd_sc_hd__and2_1
*I *165:X O *D sky130_fd_sc_hd__buf_1
*CAP
1 *146:A 0.000180593
2 *149:A 4.29073e-05
3 *148:A1 0
4 *161:A 0
5 *165:X 0.000101158
6 *37:20 0.00055455
7 *37:16 0.000704422
8 *37:10 0.000427145
9 *37:8 0.000516117
10 *37:10 *38:10 0.000130424
11 *37:16 *148:A3 0.000165198
12 *37:16 *38:10 3.92407e-05
13 *37:16 *43:14 0
14 *37:20 *43:14 0
15 *146:B *146:A 0.000498046
16 *29:8 *37:8 3.5664e-05
17 *29:10 *37:8 7.75329e-06
18 *29:10 *37:10 0.000104569
19 *29:12 *37:16 2.13834e-05
20 *29:12 *37:20 4.6318e-06
21 *29:20 *37:20 0.000537055
*RES
1 *165:X *37:8 39.9057 
2 *37:8 *37:10 5.77929 
3 *37:10 *37:16 4.08071 
4 *37:16 *37:20 28.8786 
5 *37:20 *161:A 23 
6 *37:16 *148:A1 38 
7 *37:10 *149:A 38.6214 
8 *37:8 *146:A 43.3857 
*END

*D_NET *38 0.00361343
*CONN
*I *147:A I *D sky130_fd_sc_hd__xnor2_1
*I *149:C I *D sky130_fd_sc_hd__or4_2
*I *148:A3 I *D sky130_fd_sc_hd__o31a_1
*I *166:X O *D sky130_fd_sc_hd__buf_1
*CAP
1 *147:A 0.00112209
2 *149:C 0
3 *148:A3 0.00013603
4 *166:X 9.82853e-05
5 *38:10 0.000199814
6 *38:6 0.00128416
7 *147:B *147:A 0.00014255
8 *148:A2 *148:A3 2.93845e-05
9 *173:A *147:A 0
10 *19:12 *147:A 7.91871e-05
11 *29:10 *148:A3 3.3123e-05
12 *29:10 *38:10 7.55491e-05
13 *29:12 *148:A3 7.83873e-05
14 *37:10 *38:10 0.000130424
15 *37:16 *148:A3 0.000165198
16 *37:16 *38:10 3.92407e-05
*RES
1 *166:X *38:6 24.0979 
2 *38:6 *38:10 17.2579 
3 *38:10 *148:A3 41.6457 
4 *38:10 *149:C 38 
5 *38:6 *147:A 37.8107 
*END

*D_NET *39 0.00106935
*CONN
*I *149:D I *D sky130_fd_sc_hd__or4_2
*I *148:B1 I *D sky130_fd_sc_hd__o31a_1
*I *167:X O *D sky130_fd_sc_hd__clkbuf_1
*CAP
1 *149:D 0.00019091
2 *148:B1 0
3 *167:X 0.000136554
4 *39:10 0.000327464
5 *149:B *149:D 1.94812e-05
6 *29:10 *149:D 8.11552e-05
7 *29:12 *149:D 0.00016046
8 *29:20 *149:D 1.14452e-05
9 *29:20 *39:10 0.000141879
*RES
1 *167:X *39:10 40.5271 
2 *39:10 *148:B1 38 
3 *39:10 *149:D 42.4121 
*END

*D_NET *40 0.00851637
*CONN
*I *152:A I *D sky130_fd_sc_hd__nor2_1
*I *157:A1 I *D sky130_fd_sc_hd__o31ai_1
*I *153:A I *D sky130_fd_sc_hd__and2_1
*I *156:A I *D sky130_fd_sc_hd__or4_1
*I *168:X O *D sky130_fd_sc_hd__buf_1
*CAP
1 *152:A 8.57114e-05
2 *157:A1 0.000228431
3 *153:A 6.00755e-05
4 *156:A 0.000413205
5 *168:X 0.000994885
6 *40:34 0.00084412
7 *40:10 0.000730995
8 *40:8 0.000787692
9 *40:6 0.000994885
10 *152:A *44:10 0
11 *153:A *44:6 7.59794e-05
12 *156:A *42:27 0.000262281
13 *157:A1 *41:38 0.000161075
14 *40:10 *42:27 0.000117961
15 *40:34 *42:27 0.000450077
16 *40:34 *44:10 0
17 *150:B *40:6 5.3304e-05
18 *153:B *153:A 5.50106e-05
19 *154:A *40:6 0.000353219
20 *155:B *40:10 0.000139647
21 *155:B *40:34 5.24393e-05
22 *156:D *156:A 0.000180218
23 *156:D *40:10 0
24 *21:24 *40:10 0
25 *21:69 *152:A 2.95125e-05
26 *23:8 *152:A 0.000104869
27 *23:8 *40:34 0.00133271
28 *33:8 *40:6 8.06804e-06
*RES
1 *168:X *40:6 36.0086 
2 *40:6 *40:8 15 
3 *40:8 *40:10 5.075 
4 *40:10 *156:A 46.9693 
5 *40:10 *153:A 39.5743 
6 *40:8 *40:34 18.4564 
7 *40:34 *157:A1 42.4536 
8 *40:34 *152:A 40.2579 
*END

*D_NET *41 0.0062549
*CONN
*I *157:A2 I *D sky130_fd_sc_hd__o31ai_1
*I *155:A I *D sky130_fd_sc_hd__xnor2_1
*I *156:B I *D sky130_fd_sc_hd__or4_1
*I *169:X O *D sky130_fd_sc_hd__buf_1
*CAP
1 *157:A2 0
2 *155:A 5.51761e-05
3 *156:B 0.000105097
4 *169:X 0.000404972
5 *41:38 0.0011719
6 *41:23 0.00134452
7 *41:12 0.000627518
8 *155:B *155:A 5.50049e-05
9 *157:A1 *41:38 0.000161075
10 *157:A3 *41:38 0.000160051
11 *160:B *41:38 0
12 *163:A *41:12 0.0001129
13 *19:8 *41:38 7.03869e-05
14 *19:16 *156:B 6.7177e-06
15 *19:16 *41:23 7.76364e-06
16 *19:16 *41:38 1.17152e-05
17 *21:22 *41:38 0.000100533
18 *21:63 *41:38 0.000324796
19 *21:69 *41:38 0
20 *22:8 *41:38 0.000536703
21 *24:10 *41:23 9.98891e-05
22 *24:10 *41:38 0.000116413
23 *25:10 *41:23 0
24 *25:10 *41:38 0
25 *28:10 *156:B 0.000110913
26 *28:10 *41:12 0.000577865
27 *29:20 *41:12 9.29895e-05
*RES
1 *169:X *41:12 47.715 
2 *41:12 *156:B 39.9057 
3 *41:12 *41:23 2.96214 
4 *41:23 *155:A 39.0979 
5 *41:23 *41:38 42.3946 
6 *41:38 *157:A2 23 
*END

*D_NET *42 0.00642714
*CONN
*I *157:B1 I *D sky130_fd_sc_hd__o31ai_1
*I *156:C I *D sky130_fd_sc_hd__or4_1
*I *170:X O *D sky130_fd_sc_hd__buf_1
*CAP
1 *157:B1 0
2 *156:C 0
3 *170:X 0.000424176
4 *42:27 0.00135306
5 *42:12 0.0016232
6 *42:8 0.000694309
7 *42:8 *43:8 0.000235687
8 *42:27 *44:10 0
9 *156:A *42:27 0.000262281
10 *156:D *42:27 0.000181925
11 *26:14 *42:27 0.00101809
12 *28:10 *42:12 6.63698e-05
13 *35:12 *42:27 0
14 *40:10 *42:27 0.000117961
15 *40:34 *42:27 0.000450077
*RES
1 *170:X *42:8 45.7679 
2 *42:8 *42:12 20.075 
3 *42:12 *156:C 23 
4 *42:12 *42:27 48.6607 
5 *42:27 *157:B1 38 
*END

*D_NET *43 0.00366569
*CONN
*I *160:A I *D sky130_fd_sc_hd__xor2_1
*I *171:X O *D sky130_fd_sc_hd__buf_1
*CAP
1 *160:A 0
2 *171:X 0.000154153
3 *43:14 0.00121879
4 *43:8 0.00137294
5 *160:B *43:14 0.000293398
6 *21:12 *43:14 2.98648e-05
7 *25:10 *43:14 0.000360851
8 *29:20 *43:14 0
9 *37:16 *43:14 0
10 *37:20 *43:14 0
11 *42:8 *43:8 0.000235687
*RES
1 *171:X *43:8 40.5271 
2 *43:8 *43:14 40.8929 
3 *43:14 *160:A 23 
*END

*D_NET *44 0.00604734
*CONN
*I *179:A I *D sky130_fd_sc_hd__buf_2
*I *163:X O *D sky130_fd_sc_hd__clkbuf_1
*CAP
1 *179:A 0
2 *163:X 0.000911895
3 *44:10 0.00111186
4 *44:6 0.00202376
5 *152:A *44:10 0
6 *153:A *44:6 7.59794e-05
7 *153:B *44:6 7.43025e-06
8 *24:10 *44:6 0.000100403
9 *26:14 *44:10 0
10 *28:10 *44:6 0.000486676
11 *30:14 *44:10 0.000678277
12 *35:12 *44:10 0.000651064
13 *40:34 *44:10 0
14 *42:27 *44:10 0
*RES
1 *163:X *44:6 36.0086 
2 *44:6 *44:10 41.2036 
3 *44:10 *179:A 38 
*END
