*SPEF "ieee 1481-1999"
*DESIGN "twos_complement"
*DATE "19:26:57 Friday April 25, 2025"
*VENDOR "The OpenROAD Project"
*PROGRAM "OpenROAD"
*VERSION "b16bda7e82721d10566ff7e2b68f1ff0be9f9e38"
*DESIGN_FLOW "NAME_SCOPE LOCAL" "PIN_CAP NONE"
*DIVIDER /
*DELIMITER :
*BUS_DELIMITER []
*T_UNIT 1 NS
*C_UNIT 1 PF
*R_UNIT 1 OHM
*L_UNIT 1 HENRY

*NAME_MAP
*3 in[0]
*4 in[1]
*5 in[2]
*6 in[3]
*7 in[4]
*8 in[5]
*9 in[6]
*10 in[7]
*11 out[0]
*12 out[1]
*13 out[2]
*14 out[3]
*15 out[4]
*16 out[5]
*17 out[6]
*18 out[7]
*19 _00_
*20 _01_
*21 _02_
*22 _03_
*23 _04_
*24 _05_
*25 _06_
*26 _07_
*27 _08_
*28 _09_
*29 net1
*30 net10
*31 net11
*32 net12
*33 net13
*34 net14
*35 net15
*36 net16
*37 net2
*38 net3
*39 net4
*40 net5
*41 net6
*42 net7
*43 net8
*44 net9
*45 FILLER_0_0_21
*46 FILLER_0_0_27
*47 FILLER_0_0_29
*48 FILLER_0_0_37
*49 FILLER_0_0_9
*50 FILLER_0_10_18
*51 FILLER_0_10_26
*52 FILLER_0_10_29
*53 FILLER_0_10_33
*54 FILLER_0_10_41
*55 FILLER_0_10_6
*56 FILLER_0_11_15
*57 FILLER_0_11_22
*58 FILLER_0_11_3
*59 FILLER_0_11_34
*60 FILLER_0_11_41
*61 FILLER_0_11_47
*62 FILLER_0_12_21
*63 FILLER_0_12_27
*64 FILLER_0_12_29
*65 FILLER_0_12_33
*66 FILLER_0_12_39
*67 FILLER_0_12_9
*68 FILLER_0_1_15
*69 FILLER_0_1_23
*70 FILLER_0_1_27
*71 FILLER_0_1_3
*72 FILLER_0_1_39
*73 FILLER_0_1_47
*74 FILLER_0_2_15
*75 FILLER_0_2_24
*76 FILLER_0_2_29
*77 FILLER_0_2_3
*78 FILLER_0_2_41
*79 FILLER_0_2_47
*80 FILLER_0_3_14
*81 FILLER_0_3_26
*82 FILLER_0_3_30
*83 FILLER_0_3_36
*84 FILLER_0_4_15
*85 FILLER_0_4_26
*86 FILLER_0_4_29
*87 FILLER_0_4_3
*88 FILLER_0_4_41
*89 FILLER_0_4_47
*90 FILLER_0_5_14
*91 FILLER_0_5_18
*92 FILLER_0_5_30
*93 FILLER_0_5_42
*94 FILLER_0_5_6
*95 FILLER_0_6_15
*96 FILLER_0_6_22
*97 FILLER_0_6_29
*98 FILLER_0_6_3
*99 FILLER_0_6_41
*100 FILLER_0_6_47
*101 FILLER_0_7_18
*102 FILLER_0_7_30
*103 FILLER_0_7_42
*104 FILLER_0_7_6
*105 FILLER_0_8_13
*106 FILLER_0_8_25
*107 FILLER_0_8_29
*108 FILLER_0_8_41
*109 FILLER_0_9_20
*110 FILLER_0_9_3
*111 FILLER_0_9_32
*112 FILLER_0_9_44
*113 PHY_EDGE_ROW_0_Left_13
*114 PHY_EDGE_ROW_0_Right_0
*115 PHY_EDGE_ROW_10_Left_23
*116 PHY_EDGE_ROW_10_Right_10
*117 PHY_EDGE_ROW_11_Left_24
*118 PHY_EDGE_ROW_11_Right_11
*119 PHY_EDGE_ROW_12_Left_25
*120 PHY_EDGE_ROW_12_Right_12
*121 PHY_EDGE_ROW_1_Left_14
*122 PHY_EDGE_ROW_1_Right_1
*123 PHY_EDGE_ROW_2_Left_15
*124 PHY_EDGE_ROW_2_Right_2
*125 PHY_EDGE_ROW_3_Left_16
*126 PHY_EDGE_ROW_3_Right_3
*127 PHY_EDGE_ROW_4_Left_17
*128 PHY_EDGE_ROW_4_Right_4
*129 PHY_EDGE_ROW_5_Left_18
*130 PHY_EDGE_ROW_5_Right_5
*131 PHY_EDGE_ROW_6_Left_19
*132 PHY_EDGE_ROW_6_Right_6
*133 PHY_EDGE_ROW_7_Left_20
*134 PHY_EDGE_ROW_7_Right_7
*135 PHY_EDGE_ROW_8_Left_21
*136 PHY_EDGE_ROW_8_Right_8
*137 PHY_EDGE_ROW_9_Left_22
*138 PHY_EDGE_ROW_9_Right_9
*139 TAP_TAPCELL_ROW_0_26
*140 TAP_TAPCELL_ROW_10_31
*141 TAP_TAPCELL_ROW_12_32
*142 TAP_TAPCELL_ROW_2_27
*143 TAP_TAPCELL_ROW_4_28
*144 TAP_TAPCELL_ROW_6_29
*145 TAP_TAPCELL_ROW_8_30
*146 _10_
*147 _11_
*148 _12_
*149 _13_
*150 _14_
*151 _15_
*152 _16_
*153 _17_
*154 _18_
*155 _19_
*156 _20_
*157 _21_
*158 _22_
*159 _23_
*160 _24_
*161 _25_
*162 _26_
*163 _27_
*164 input1
*165 input2
*166 input3
*167 input4
*168 input5
*169 input6
*170 input7
*171 input8
*172 output10
*173 output11
*174 output12
*175 output13
*176 output14
*177 output15
*178 output16
*179 output9

*PORTS
in[0] I
in[1] I
in[2] I
in[3] I
in[4] I
in[5] I
in[6] I
in[7] I
out[0] O
out[1] O
out[2] O
out[3] O
out[4] O
out[5] O
out[6] O
out[7] O

*D_NET *3 0.00108348
*CONN
*P in[0] I
*I *164:A I *D sky130_fd_sc_hd__buf_1
*CAP
1 in[0] 0.000541738
2 *164:A 0.000541738
3 *164:A *165:A 0
*RES
1 in[0] *164:A 24.4979 
*END

*D_NET *4 0.000808402
*CONN
*P in[1] I
*I *165:A I *D sky130_fd_sc_hd__buf_1
*CAP
1 in[1] 0.000404201
2 *165:A 0.000404201
3 *165:A *166:A 0
4 *164:A *165:A 0
*RES
1 in[1] *165:A 22.141 
*END

*D_NET *5 0.000581896
*CONN
*P in[2] I
*I *166:A I *D sky130_fd_sc_hd__buf_1
*CAP
1 in[2] 0.000290948
2 *166:A 0.000290948
3 *166:A *167:A 0
4 *165:A *166:A 0
*RES
1 in[2] *166:A 20.4803 
*END

*D_NET *6 0.000614258
*CONN
*P in[3] I
*I *167:A I *D sky130_fd_sc_hd__clkbuf_1
*CAP
1 in[3] 0.000307129
2 *167:A 0.000307129
3 *167:A *168:A 0
4 *166:A *167:A 0
*RES
1 in[3] *167:A 20.7838 
*END

*D_NET *7 0.000605554
*CONN
*P in[4] I
*I *168:A I *D sky130_fd_sc_hd__buf_1
*CAP
1 in[4] 0.000302777
2 *168:A 0.000302777
3 *168:A *169:A 0
4 *168:A *29:20 0
5 *167:A *168:A 0
*RES
1 in[4] *168:A 20.7838 
*END

*D_NET *8 0.000715317
*CONN
*P in[5] I
*I *169:A I *D sky130_fd_sc_hd__buf_1
*CAP
1 in[5] 0.000357659
2 *169:A 0.000357659
3 *169:A *170:A 0
4 *169:A *29:20 0
5 *168:A *169:A 0
*RES
1 in[5] *169:A 21.9981 
*END

*D_NET *9 0.000563768
*CONN
*P in[6] I
*I *170:A I *D sky130_fd_sc_hd__buf_1
*CAP
1 in[6] 0.000281884
2 *170:A 0.000281884
3 *170:A *171:A 0
4 *169:A *170:A 0
*RES
1 in[6] *170:A 20.4803 
*END

*D_NET *10 0.00123174
*CONN
*P in[7] I
*I *171:A I *D sky130_fd_sc_hd__buf_1
*CAP
1 in[7] 0.000615872
2 *171:A 0.000615872
3 *170:A *171:A 0
*RES
1 in[7] *171:A 25.0176 
*END

*D_NET *11 0.00116601
*CONN
*P out[0] O
*I *179:X O *D sky130_fd_sc_hd__buf_2
*CAP
1 out[0] 0.000583005
2 *179:X 0.000583005
3 out[0] out[1] 0
*RES
1 *179:X out[0] 23.8754 
*END

*D_NET *12 0.000438356
*CONN
*P out[1] O
*I *172:X O *D sky130_fd_sc_hd__buf_2
*CAP
1 out[1] 0.000219178
2 *172:X 0.000219178
3 out[1] out[2] 0
4 out[0] out[1] 0
*RES
1 *172:X out[1] 18.1229 
*END

*D_NET *13 0.000437128
*CONN
*P out[2] O
*I *173:X O *D sky130_fd_sc_hd__buf_2
*CAP
1 out[2] 0.000218564
2 *173:X 0.000218564
3 out[2] out[3] 0
4 out[2] *30:10 0
5 out[1] out[2] 0
*RES
1 *173:X out[2] 18.1229 
*END

*D_NET *14 0.000589099
*CONN
*P out[3] O
*I *174:X O *D sky130_fd_sc_hd__buf_2
*CAP
1 out[3] 0.000274191
2 *174:X 0.000274191
3 out[3] out[4] 0
4 out[3] *36:12 4.07164e-05
5 out[2] out[3] 0
*RES
1 *174:X out[3] 19.3371 
*END

*D_NET *15 0.000440315
*CONN
*P out[4] O
*I *175:X O *D sky130_fd_sc_hd__buf_2
*CAP
1 out[4] 0.000215903
2 *175:X 0.000215903
3 out[4] out[5] 0
4 out[4] *36:12 8.50795e-06
5 out[3] out[4] 0
*RES
1 *175:X out[4] 18.1229 
*END

*D_NET *16 0.000586236
*CONN
*P out[5] O
*I *176:X O *D sky130_fd_sc_hd__buf_2
*CAP
1 out[5] 0.000271635
2 *176:X 0.000271635
3 out[5] out[6] 0
4 out[5] *36:12 4.29654e-05
5 out[4] out[5] 0
*RES
1 *176:X out[5] 19.3371 
*END

*D_NET *17 0.000811246
*CONN
*P out[6] O
*I *177:X O *D sky130_fd_sc_hd__buf_2
*CAP
1 out[6] 0.000405623
2 *177:X 0.000405623
3 out[6] out[7] 0
4 out[5] out[6] 0
*RES
1 *177:X out[6] 18.6273 
*END

*D_NET *18 0.00103775
*CONN
*P out[7] O
*I *178:X O *D sky130_fd_sc_hd__clkbuf_4
*CAP
1 out[7] 0.000518877
2 *178:X 0.000518877
3 out[6] out[7] 0
*RES
1 *178:X out[7] 24.4258 
*END

*D_NET *19 0.00479876
*CONN
*I *147:B I *D sky130_fd_sc_hd__xnor2_1
*I *162:A I *D sky130_fd_sc_hd__nor2_1
*I *146:Y O *D sky130_fd_sc_hd__nor2_1
*CAP
1 *147:B 0.000190829
2 *162:A 0.0007008
3 *146:Y 0.000194518
4 *19:12 0.00108615
5 *147:B *147:A 0.000141012
6 *162:A *150:A_N 0.000189134
7 *162:A *154:B 0.000385717
8 *162:A *156:B 6.8646e-06
9 *162:A *156:D 0.000245349
10 *162:A *157:A2 1.18451e-05
11 *162:A *162:B 0.000174825
12 *162:A *21:22 0.000764599
13 *162:A *21:24 0.000304915
14 *162:A *21:63 0.000248486
15 *162:A *23:8 0
16 *162:A *41:23 7.80714e-06
17 *19:12 *147:A 7.84126e-05
18 *19:12 *157:A2 6.75007e-05
*RES
1 *146:Y *19:12 22.1214 
2 *19:12 *162:A 40.2821 
3 *19:12 *147:B 13.1214 
*END

*D_NET *20 0.00220588
*CONN
*I *150:A_N I *D sky130_fd_sc_hd__and2b_1
*I *148:X O *D sky130_fd_sc_hd__o31a_1
*CAP
1 *150:A_N 0.000639955
2 *148:X 0.000639955
3 *150:A_N *151:A 0.000327789
4 *150:A_N *174:A 7.12595e-05
5 *150:A_N *21:22 2.84398e-05
6 *150:A_N *23:8 0.000309349
7 *162:A *150:A_N 0.000189134
*RES
1 *148:X *150:A_N 43.35 
*END

*D_NET *21 0.00783103
*CONN
*I *157:A3 I *D sky130_fd_sc_hd__o31ai_1
*I *152:B I *D sky130_fd_sc_hd__nor2_1
*I *150:B I *D sky130_fd_sc_hd__and2b_1
*I *153:B I *D sky130_fd_sc_hd__and2_1
*I *156:D I *D sky130_fd_sc_hd__or4_1
*I *149:X O *D sky130_fd_sc_hd__or4_2
*CAP
1 *157:A3 0.000254907
2 *152:B 0.000117764
3 *150:B 1.69531e-05
4 *153:B 0.000150948
5 *156:D 0.000174145
6 *149:X 0.000392163
7 *21:63 0.000669191
8 *21:24 0.00049905
9 *21:22 0.000518019
10 *21:12 0.00101579
11 *150:B *154:A 5.33005e-05
12 *150:B *40:8 5.33005e-05
13 *152:B *152:A 2.82057e-05
14 *152:B *157:A2 0
15 *152:B *23:8 0.00020042
16 *153:B *153:A 5.52302e-05
17 *153:B *154:B 0.000186669
18 *153:B *44:10 7.48301e-06
19 *156:D *156:A 0.00018077
20 *156:D *157:B1 0.0001827
21 *156:D *40:10 0
22 *157:A3 *157:A2 0.00015732
23 *21:12 *160:B 3.2407e-05
24 *21:12 *36:12 0.00027107
25 *21:12 *43:14 2.95726e-05
26 *21:22 *151:A 0.000484571
27 *21:22 *157:A2 9.65075e-05
28 *21:22 *175:A 9.60875e-05
29 *21:22 *23:8 0
30 *21:24 *155:B 0
31 *21:24 *40:10 0
32 *21:63 *157:A2 0.000314692
33 *21:63 *23:8 0
34 *150:A_N *21:22 2.84398e-05
35 *162:A *156:D 0.000245349
36 *162:A *21:22 0.000764599
37 *162:A *21:24 0.000304915
38 *162:A *21:63 0.000248486
*RES
1 *149:X *21:12 20.2286 
2 *21:12 *21:22 19.9107 
3 *21:22 *21:24 4.07143 
4 *21:24 *156:D 18.7286 
5 *21:24 *153:B 16.9429 
6 *21:22 *150:B 14.3357 
7 *21:12 *21:63 11.3571 
8 *21:63 *152:B 21.4607 
9 *21:63 *157:A3 12.7286 
*END

*D_NET *22 0.00244315
*CONN
*I *151:A I *D sky130_fd_sc_hd__clkbuf_1
*I *150:X O *D sky130_fd_sc_hd__and2b_1
*CAP
1 *151:A 0.000310675
2 *150:X 0.000310675
3 *151:A *157:A2 0.000484571
4 *151:A *174:A 0.000524869
5 *150:A_N *151:A 0.000327789
6 *21:22 *151:A 0.000484571
*RES
1 *150:X *151:A 40.1 
*END

*D_NET *23 0.00504213
*CONN
*I *154:A I *D sky130_fd_sc_hd__nor2_1
*I *155:B I *D sky130_fd_sc_hd__xnor2_1
*I *152:Y O *D sky130_fd_sc_hd__nor2_1
*CAP
1 *154:A 0.000192394
2 *155:B 0.000314628
3 *152:Y 0.000491704
4 *23:8 0.000998727
5 *154:A *154:B 0.00035785
6 *154:A *175:A 0.000156621
7 *154:A *40:8 0.000345247
8 *155:B *155:A 5.52238e-05
9 *155:B *176:A 9.58478e-05
10 *155:B *40:10 0.000126439
11 *155:B *40:34 4.73656e-05
12 *23:8 *152:A 9.4724e-05
13 *23:8 *40:34 0.00120229
14 *150:A_N *23:8 0.000309349
15 *150:B *154:A 5.33005e-05
16 *152:B *23:8 0.00020042
17 *162:A *23:8 0
18 *21:22 *23:8 0
19 *21:24 *155:B 0
20 *21:63 *23:8 0
*RES
1 *152:Y *23:8 30.3179 
2 *23:8 *155:B 19.8714 
3 *23:8 *154:A 20.925 
*END

*D_NET *24 0.00215455
*CONN
*I *154:B I *D sky130_fd_sc_hd__nor2_1
*I *153:X O *D sky130_fd_sc_hd__and2_1
*CAP
1 *154:B 0.000279827
2 *153:X 0.000279827
3 *154:B *157:A2 0.000111805
4 *154:B *175:A 0.00035785
5 *154:B *41:23 9.56968e-05
6 *154:B *44:10 9.93105e-05
7 *153:B *154:B 0.000186669
8 *154:A *154:B 0.00035785
9 *162:A *154:B 0.000385717
*RES
1 *153:X *154:B 38.5821 
*END

*D_NET *25 0.00264546
*CONN
*I *160:B I *D sky130_fd_sc_hd__xor2_1
*I *158:A I *D sky130_fd_sc_hd__and2_1
*I *156:X O *D sky130_fd_sc_hd__or4_1
*CAP
1 *160:B 0.000376453
2 *158:A 6.81388e-05
3 *156:X 0.000546595
4 *25:10 0.000991186
5 *160:B *157:A2 0
6 *160:B *43:14 0.000283165
7 *25:10 *157:A2 0
8 *25:10 *41:23 0
9 *25:10 *43:14 0.000347512
10 *21:12 *160:B 3.2407e-05
*RES
1 *156:X *25:10 24.0857 
2 *25:10 *158:A 14.7464 
3 *25:10 *160:B 21.8714 
*END

*D_NET *26 0.00331075
*CONN
*I *158:B I *D sky130_fd_sc_hd__and2_1
*I *157:Y O *D sky130_fd_sc_hd__o31ai_1
*CAP
1 *158:B 0.000872841
2 *157:Y 0.000872841
3 *158:B *157:B1 0.000918113
4 *158:B *159:A 0.000646959
5 *158:B *44:10 0
*RES
1 *157:Y *158:B 46.7964 
*END

*D_NET *27 0.00180628
*CONN
*I *159:A I *D sky130_fd_sc_hd__clkbuf_1
*I *158:X O *D sky130_fd_sc_hd__and2_1
*CAP
1 *159:A 0.000545321
2 *158:X 0.000545321
3 *159:A *177:A 6.86792e-05
4 *158:B *159:A 0.000646959
*RES
1 *158:X *159:A 28.9929 
*END

*D_NET *28 0.00201695
*CONN
*I *162:B I *D sky130_fd_sc_hd__nor2_1
*I *161:X O *D sky130_fd_sc_hd__and2_1
*CAP
1 *162:B 0.000309675
2 *161:X 0.000309675
3 *162:B *156:B 0.000100823
4 *162:B *41:12 0.000572281
5 *162:B *42:12 6.58195e-05
6 *162:B *44:10 0.000483852
7 *162:A *162:B 0.000174825
*RES
1 *161:X *162:B 37.85 
*END

*D_NET *29 0.0048094
*CONN
*I *146:B I *D sky130_fd_sc_hd__nor2_1
*I *149:B I *D sky130_fd_sc_hd__or4_2
*I *148:A2 I *D sky130_fd_sc_hd__o31a_1
*I *163:A I *D sky130_fd_sc_hd__clkbuf_1
*I *161:B I *D sky130_fd_sc_hd__and2_1
*I *164:X O *D sky130_fd_sc_hd__buf_1
*CAP
1 *146:B 0.000381889
2 *149:B 4.4884e-05
3 *148:A2 2.76349e-05
4 *163:A 5.38728e-05
5 *161:B 0
6 *164:X 6.68424e-05
7 *29:20 0.000610496
8 *29:12 0.000632984
9 *29:10 0.000339119
10 *29:8 0.000694241
11 *146:B *146:A 0.0004897
12 *148:A2 *148:A3 2.89114e-05
13 *149:B *149:D 1.92905e-05
14 *163:A *41:12 0.00011053
15 *29:8 *37:8 3.57163e-05
16 *29:10 *148:A3 3.17163e-05
17 *29:10 *149:D 7.29667e-05
18 *29:10 *37:8 7.79781e-06
19 *29:10 *37:10 0.000103152
20 *29:10 *38:10 7.252e-05
21 *29:12 *148:A3 7.24733e-05
22 *29:12 *149:D 0.000144512
23 *29:12 *161:A 4.46186e-06
24 *29:12 *37:16 2.04866e-05
25 *29:20 *149:D 1.02504e-05
26 *29:20 *161:A 0.000514358
27 *29:20 *39:10 0.000128154
28 *29:20 *41:12 9.04439e-05
29 *29:20 *43:14 0
30 *168:A *29:20 0
31 *169:A *29:20 0
*RES
1 *164:X *29:8 15.1393 
2 *29:8 *29:10 6.19643 
3 *29:10 *29:12 1.94643 
4 *29:12 *29:20 18.5536 
5 *29:20 *161:B 9.3 
6 *29:20 *163:A 10.6571 
7 *29:12 *148:A2 14.3357 
8 *29:10 *149:B 14.3357 
9 *29:8 *146:B 20.925 
*END

*D_NET *30 0.00567313
*CONN
*I *172:A I *D sky130_fd_sc_hd__buf_2
*I *162:Y O *D sky130_fd_sc_hd__nor2_1
*CAP
1 *172:A 6.17105e-05
2 *162:Y 0.00131321
3 *30:10 0.00137492
4 *30:10 *177:A 0.00084899
5 *30:10 *36:12 0.00142461
6 *30:10 *44:10 0.000649692
7 out[2] *30:10 0
*RES
1 *162:Y *30:10 46.8357 
2 *30:10 *172:A 14.7464 
*END

*D_NET *31 0.00031422
*CONN
*I *173:A I *D sky130_fd_sc_hd__buf_2
*I *147:Y O *D sky130_fd_sc_hd__xnor2_1
*CAP
1 *173:A 0.00015711
2 *147:Y 0.00015711
3 *173:A *147:A 0
*RES
1 *147:Y *173:A 21.1 
*END

*D_NET *32 0.00290937
*CONN
*I *174:A I *D sky130_fd_sc_hd__buf_2
*I *151:X O *D sky130_fd_sc_hd__clkbuf_1
*CAP
1 *174:A 0.00115662
2 *151:X 0.00115662
3 *150:A_N *174:A 7.12595e-05
4 *151:A *174:A 0.000524869
*RES
1 *151:X *174:A 32.6 
*END

*D_NET *33 0.00204588
*CONN
*I *175:A I *D sky130_fd_sc_hd__buf_2
*I *154:Y O *D sky130_fd_sc_hd__nor2_1
*CAP
1 *175:A 0.000713531
2 *154:Y 0.000713531
3 *175:A *40:8 8.25843e-06
4 *154:A *175:A 0.000156621
5 *154:B *175:A 0.00035785
6 *21:22 *175:A 9.60875e-05
*RES
1 *154:Y *175:A 30.6536 
*END

*D_NET *34 0.00177726
*CONN
*I *176:A I *D sky130_fd_sc_hd__buf_2
*I *155:Y O *D sky130_fd_sc_hd__xnor2_1
*CAP
1 *176:A 0.000776632
2 *155:Y 0.000776632
3 *176:A *36:12 0.000128146
4 *155:B *176:A 9.58478e-05
*RES
1 *155:Y *176:A 37.1714 
*END

*D_NET *35 0.00268486
*CONN
*I *177:A I *D sky130_fd_sc_hd__buf_2
*I *159:X O *D sky130_fd_sc_hd__clkbuf_1
*CAP
1 *177:A 0.000516477
2 *159:X 0.000516477
3 *177:A *157:B1 0
4 *177:A *36:12 0.000147646
5 *177:A *44:10 0.000586589
6 *159:A *177:A 6.86792e-05
7 *30:10 *177:A 0.00084899
*RES
1 *159:X *177:A 43.0464 
*END

*D_NET *36 0.00533839
*CONN
*I *178:A I *D sky130_fd_sc_hd__clkbuf_4
*I *160:X O *D sky130_fd_sc_hd__xor2_1
*CAP
1 *178:A 0
2 *160:X 0.00163737
3 *36:12 0.00163737
4 out[3] *36:12 4.07164e-05
5 out[4] *36:12 8.50795e-06
6 out[5] *36:12 4.29654e-05
7 *176:A *36:12 0.000128146
8 *177:A *36:12 0.000147646
9 *21:12 *36:12 0.00027107
10 *30:10 *36:12 0.00142461
*RES
1 *160:X *36:12 49.6571 
2 *36:12 *178:A 9.3 
*END

*D_NET *37 0.00372221
*CONN
*I *146:A I *D sky130_fd_sc_hd__nor2_1
*I *149:A I *D sky130_fd_sc_hd__or4_2
*I *148:A1 I *D sky130_fd_sc_hd__o31a_1
*I *161:A I *D sky130_fd_sc_hd__and2_1
*I *165:X O *D sky130_fd_sc_hd__buf_1
*CAP
1 *146:A 0.000168564
2 *149:A 3.76563e-05
3 *148:A1 0
4 *161:A 0.000489053
5 *165:X 8.4851e-05
6 *37:16 0.00062414
7 *37:10 0.000379334
8 *37:8 0.000460005
9 *161:A *43:14 0
10 *37:10 *38:10 0.000117896
11 *37:16 *148:A3 0.000149899
12 *37:16 *38:10 3.51442e-05
13 *37:16 *43:14 0
14 *146:B *146:A 0.0004897
15 *29:8 *37:8 3.57163e-05
16 *29:10 *37:8 7.79781e-06
17 *29:10 *37:10 0.000103152
18 *29:12 *161:A 4.46186e-06
19 *29:12 *37:16 2.04866e-05
20 *29:20 *161:A 0.000514358
*RES
1 *165:X *37:8 15.4429 
2 *37:8 *37:10 4.98214 
3 *37:10 *37:16 3.51786 
4 *37:16 *161:A 25.7643 
5 *37:16 *148:A1 13.8 
6 *37:10 *149:A 14.3357 
7 *37:8 *146:A 18.4429 
*END

*D_NET *38 0.0033359
*CONN
*I *147:A I *D sky130_fd_sc_hd__xnor2_1
*I *149:C I *D sky130_fd_sc_hd__or4_2
*I *148:A3 I *D sky130_fd_sc_hd__o31a_1
*I *166:X O *D sky130_fd_sc_hd__buf_1
*CAP
1 *147:A 0.00104942
2 *149:C 0
3 *148:A3 0.000114069
4 *166:X 9.05099e-05
5 *38:10 0.000164031
6 *38:6 0.00118989
7 *147:B *147:A 0.000141012
8 *148:A2 *148:A3 2.89114e-05
9 *173:A *147:A 0
10 *19:12 *147:A 7.84126e-05
11 *29:10 *148:A3 3.17163e-05
12 *29:10 *38:10 7.252e-05
13 *29:12 *148:A3 7.24733e-05
14 *37:10 *38:10 0.000117896
15 *37:16 *148:A3 0.000149899
16 *37:16 *38:10 3.51442e-05
*RES
1 *166:X *38:6 10.2464 
2 *38:6 *38:10 6.44643 
3 *38:10 *148:A3 16.9429 
4 *38:10 *149:C 13.8 
5 *38:6 *147:A 22.0679 
*END

*D_NET *39 0.000945736
*CONN
*I *149:D I *D sky130_fd_sc_hd__or4_2
*I *148:B1 I *D sky130_fd_sc_hd__o31a_1
*I *167:X O *D sky130_fd_sc_hd__clkbuf_1
*CAP
1 *149:D 0.000165939
2 *148:B1 0
3 *167:X 0.000119342
4 *39:10 0.000285282
5 *149:B *149:D 1.92905e-05
6 *29:10 *149:D 7.29667e-05
7 *29:12 *149:D 0.000144512
8 *29:20 *149:D 1.02504e-05
9 *29:20 *39:10 0.000128154
*RES
1 *167:X *39:10 15.9786 
2 *39:10 *148:B1 13.8 
3 *39:10 *149:D 17.6036 
*END

*D_NET *40 0.00770292
*CONN
*I *152:A I *D sky130_fd_sc_hd__nor2_1
*I *157:A1 I *D sky130_fd_sc_hd__o31ai_1
*I *153:A I *D sky130_fd_sc_hd__and2_1
*I *156:A I *D sky130_fd_sc_hd__or4_1
*I *168:X O *D sky130_fd_sc_hd__buf_1
*CAP
1 *152:A 7.47261e-05
2 *157:A1 0.000209588
3 *153:A 5.0567e-05
4 *156:A 0.000362573
5 *168:X 0.000921797
6 *40:34 0.00071075
7 *40:10 0.000618302
8 *40:8 0.00155339
9 *152:A *44:10 0
10 *153:A *44:10 7.48091e-05
11 *156:A *157:B1 0.000260568
12 *157:A1 *157:A2 0.000158748
13 *40:10 *157:B1 0.000117987
14 *40:34 *157:B1 0.000447278
15 *40:34 *44:10 0
16 *150:B *40:8 5.33005e-05
17 *152:B *152:A 2.82057e-05
18 *153:B *153:A 5.52302e-05
19 *154:A *40:8 0.000345247
20 *155:B *40:10 0.000126439
21 *155:B *40:34 4.73656e-05
22 *156:D *156:A 0.00018077
23 *156:D *40:10 0
24 *175:A *40:8 8.25843e-06
25 *21:24 *40:10 0
26 *23:8 *152:A 9.4724e-05
27 *23:8 *40:34 0.00120229
*RES
1 *168:X *40:8 25.0143 
2 *40:8 *40:10 4.375 
3 *40:10 *156:A 21.5321 
4 *40:10 *153:A 15.1571 
5 *40:8 *40:34 15.9107 
6 *40:34 *157:A1 17.6393 
7 *40:34 *152:A 15.7464 
*END

*D_NET *41 0.00566141
*CONN
*I *157:A2 I *D sky130_fd_sc_hd__o31ai_1
*I *155:A I *D sky130_fd_sc_hd__xnor2_1
*I *156:B I *D sky130_fd_sc_hd__or4_1
*I *169:X O *D sky130_fd_sc_hd__buf_1
*CAP
1 *157:A2 0.000998558
2 *155:A 4.9663e-05
3 *156:B 8.45131e-05
4 *169:X 0.000374223
5 *41:23 0.00115064
6 *41:12 0.000561153
7 *151:A *157:A2 0.000484571
8 *152:B *157:A2 0
9 *154:B *157:A2 0.000111805
10 *154:B *41:23 9.56968e-05
11 *155:B *155:A 5.52238e-05
12 *157:A1 *157:A2 0.000158748
13 *157:A3 *157:A2 0.00015732
14 *160:B *157:A2 0
15 *162:A *156:B 6.8646e-06
16 *162:A *157:A2 1.18451e-05
17 *162:A *41:23 7.80714e-06
18 *162:B *156:B 0.000100823
19 *162:B *41:12 0.000572281
20 *163:A *41:12 0.00011053
21 *19:12 *157:A2 6.75007e-05
22 *21:22 *157:A2 9.65075e-05
23 *21:63 *157:A2 0.000314692
24 *25:10 *157:A2 0
25 *25:10 *41:23 0
26 *29:20 *41:12 9.04439e-05
*RES
1 *169:X *41:12 22.175 
2 *41:12 *156:B 15.4429 
3 *41:12 *41:23 2.55357 
4 *41:23 *155:A 14.7464 
5 *41:23 *157:A2 37.4161 
*END

*D_NET *42 0.00581036
*CONN
*I *157:B1 I *D sky130_fd_sc_hd__o31ai_1
*I *156:C I *D sky130_fd_sc_hd__or4_1
*I *170:X O *D sky130_fd_sc_hd__buf_1
*CAP
1 *157:B1 0.00116186
2 *156:C 0
3 *170:X 0.000632011
4 *42:12 0.00179387
5 *157:B1 *44:10 0
6 *42:12 *43:14 0.000230155
7 *156:A *157:B1 0.000260568
8 *156:D *157:B1 0.0001827
9 *158:B *157:B1 0.000918113
10 *162:B *42:12 6.58195e-05
11 *177:A *157:B1 0
12 *40:10 *157:B1 0.000117987
13 *40:34 *157:B1 0.000447278
*RES
1 *170:X *42:12 29.3714 
2 *42:12 *156:C 9.3 
3 *42:12 *157:B1 47.3179 
*END

*D_NET *43 0.0033462
*CONN
*I *160:A I *D sky130_fd_sc_hd__xor2_1
*I *171:X O *D sky130_fd_sc_hd__buf_1
*CAP
1 *160:A 0
2 *171:X 0.0012279
3 *43:14 0.0012279
4 *160:B *43:14 0.000283165
5 *161:A *43:14 0
6 *21:12 *43:14 2.95726e-05
7 *25:10 *43:14 0.000347512
8 *29:20 *43:14 0
9 *37:16 *43:14 0
10 *42:12 *43:14 0.000230155
*RES
1 *171:X *43:14 42.8 
2 *43:14 *160:A 9.3 
*END

*D_NET *44 0.00552425
*CONN
*I *179:A I *D sky130_fd_sc_hd__buf_2
*I *163:X O *D sky130_fd_sc_hd__clkbuf_1
*CAP
1 *179:A 0
2 *163:X 0.00181126
3 *44:10 0.00181126
4 *152:A *44:10 0
5 *153:A *44:10 7.48091e-05
6 *153:B *44:10 7.48301e-06
7 *154:B *44:10 9.93105e-05
8 *157:B1 *44:10 0
9 *158:B *44:10 0
10 *162:B *44:10 0.000483852
11 *177:A *44:10 0.000586589
12 *30:10 *44:10 0.000649692
13 *40:34 *44:10 0
*RES
1 *163:X *44:10 47.6036 
2 *44:10 *179:A 13.8 
*END
