*SPEF "ieee 1481-1999"
*DESIGN "ZeroToFiveCounter"
*DATE "20:45:12 Friday May 23, 2025"
*VENDOR "The OpenROAD Project"
*PROGRAM "OpenROAD"
*VERSION "b16bda7e82721d10566ff7e2b68f1ff0be9f9e38"
*DESIGN_FLOW "NAME_SCOPE LOCAL" "PIN_CAP NONE"
*DIVIDER /
*DELIMITER :
*BUS_DELIMITER []
*T_UNIT 1 NS
*C_UNIT 1 PF
*R_UNIT 1 OHM
*L_UNIT 1 HENRY

*NAME_MAP
*3 net10
*4 net11
*5 net12
*6 net13
*7 net14
*8 net15
*9 net16
*10 net9
*11 clk
*12 rst
*13 seg[0]
*14 seg[1]
*15 seg[2]
*16 seg[3]
*17 seg[4]
*18 seg[5]
*19 seg[6]
*20 _000_
*21 _001_
*22 _002_
*23 _003_
*24 _004_
*25 _005_
*26 _006_
*27 _007_
*28 _008_
*29 _009_
*30 _010_
*31 _011_
*32 _012_
*33 _013_
*34 _014_
*35 _015_
*36 _016_
*37 _017_
*38 _018_
*39 _019_
*40 _020_
*41 _021_
*42 _022_
*43 _023_
*44 _024_
*45 _025_
*46 _026_
*47 _027_
*48 _028_
*49 _029_
*50 _030_
*51 _031_
*52 _032_
*53 _033_
*54 _034_
*55 _035_
*56 _036_
*57 _037_
*58 _038_
*59 _039_
*60 _040_
*61 _041_
*62 _042_
*63 _043_
*64 _044_
*65 _045_
*66 _046_
*67 _047_
*68 _048_
*69 _049_
*70 _050_
*71 _051_
*72 _052_
*73 _053_
*74 _054_
*75 _055_
*76 _056_
*77 _057_
*78 _058_
*79 _059_
*80 _060_
*81 _061_
*82 _062_
*83 _063_
*84 _064_
*85 _065_
*86 _066_
*87 _067_
*88 _068_
*89 _069_
*90 _070_
*91 _071_
*92 _072_
*93 _073_
*94 _074_
*95 _075_
*96 _076_
*97 _077_
*98 _078_
*99 _079_
*100 _080_
*101 _081_
*102 _082_
*103 _083_
*104 _084_
*105 _085_
*106 _086_
*107 _087_
*108 _088_
*109 _089_
*110 _090_
*111 _091_
*112 _092_
*113 _093_
*114 _094_
*115 _095_
*116 _096_
*117 _097_
*118 _098_
*119 _099_
*120 _100_
*121 _101_
*122 _102_
*123 _103_
*124 _104_
*125 _105_
*126 _106_
*127 _107_
*128 _108_
*129 _109_
*130 _110_
*131 _111_
*132 _112_
*133 _113_
*134 _114_
*135 _115_
*136 _116_
*137 _117_
*138 _118_
*139 _119_
*140 _120_
*141 _121_
*142 _122_
*143 _123_
*144 _124_
*145 _125_
*146 _126_
*147 _127_
*148 _128_
*149 _129_
*150 _130_
*151 _131_
*152 _132_
*153 _133_
*154 _134_
*155 _135_
*156 _136_
*157 _137_
*158 _138_
*159 _139_
*160 _140_
*161 _141_
*162 _142_
*163 _143_
*164 _144_
*165 _145_
*166 _146_
*167 _147_
*168 _148_
*169 _149_
*170 _150_
*171 _151_
*172 _152_
*173 _153_
*174 _154_
*175 _155_
*176 _156_
*177 _157_
*178 _158_
*179 _159_
*180 _160_
*181 _161_
*182 clknet_0_clk
*183 clknet_2_0__leaf_clk
*184 clknet_2_1__leaf_clk
*185 clknet_2_2__leaf_clk
*186 clknet_2_3__leaf_clk
*187 decoder\.digit\[0\]
*188 decoder\.digit\[1\]
*189 decoder\.digit\[2\]
*190 decoder\.digit\[3\]
*191 net1
*192 net2
*193 net3
*194 net4
*195 net5
*196 net6
*197 net7
*198 net8
*199 one_second_counter\[0\]
*200 one_second_counter\[10\]
*201 one_second_counter\[11\]
*202 one_second_counter\[12\]
*203 one_second_counter\[13\]
*204 one_second_counter\[14\]
*205 one_second_counter\[15\]
*206 one_second_counter\[16\]
*207 one_second_counter\[17\]
*208 one_second_counter\[18\]
*209 one_second_counter\[19\]
*210 one_second_counter\[1\]
*211 one_second_counter\[20\]
*212 one_second_counter\[21\]
*213 one_second_counter\[22\]
*214 one_second_counter\[23\]
*215 one_second_counter\[24\]
*216 one_second_counter\[25\]
*217 one_second_counter\[26\]
*218 one_second_counter\[2\]
*219 one_second_counter\[3\]
*220 one_second_counter\[4\]
*221 one_second_counter\[5\]
*222 one_second_counter\[6\]
*223 one_second_counter\[7\]
*224 one_second_counter\[8\]
*225 one_second_counter\[9\]
*226 one_second_enable
*227 ANTENNA_1
*228 ANTENNA_10
*229 ANTENNA_11
*230 ANTENNA_12
*231 ANTENNA_13
*232 ANTENNA_14
*233 ANTENNA_15
*234 ANTENNA_16
*235 ANTENNA_17
*236 ANTENNA_18
*237 ANTENNA_19
*238 ANTENNA_2
*239 ANTENNA_20
*240 ANTENNA_21
*241 ANTENNA_22
*242 ANTENNA_23
*243 ANTENNA_24
*244 ANTENNA_25
*245 ANTENNA_26
*246 ANTENNA_27
*247 ANTENNA_28
*248 ANTENNA_29
*249 ANTENNA_3
*250 ANTENNA_30
*251 ANTENNA_31
*252 ANTENNA_32
*253 ANTENNA_33
*254 ANTENNA_34
*255 ANTENNA_35
*256 ANTENNA_36
*257 ANTENNA_37
*258 ANTENNA_38
*259 ANTENNA_39
*260 ANTENNA_4
*261 ANTENNA_40
*262 ANTENNA_41
*263 ANTENNA_42
*264 ANTENNA_43
*265 ANTENNA_44
*266 ANTENNA_45
*267 ANTENNA_46
*268 ANTENNA_47
*269 ANTENNA_48
*270 ANTENNA_49
*271 ANTENNA_5
*272 ANTENNA_50
*273 ANTENNA_51
*274 ANTENNA_52
*275 ANTENNA_53
*276 ANTENNA_6
*277 ANTENNA_7
*278 ANTENNA_8
*279 ANTENNA_9
*280 FILLER_0_0_109
*281 FILLER_0_0_113
*282 FILLER_0_0_125
*283 FILLER_0_0_134
*284 FILLER_0_0_141
*285 FILLER_0_0_15
*286 FILLER_0_0_153
*287 FILLER_0_0_165
*288 FILLER_0_0_169
*289 FILLER_0_0_181
*290 FILLER_0_0_187
*291 FILLER_0_0_191
*292 FILLER_0_0_195
*293 FILLER_0_0_197
*294 FILLER_0_0_20
*295 FILLER_0_0_209
*296 FILLER_0_0_221
*297 FILLER_0_0_225
*298 FILLER_0_0_237
*299 FILLER_0_0_248
*300 FILLER_0_0_253
*301 FILLER_0_0_265
*302 FILLER_0_0_277
*303 FILLER_0_0_281
*304 FILLER_0_0_29
*305 FILLER_0_0_293
*306 FILLER_0_0_3
*307 FILLER_0_0_301
*308 FILLER_0_0_305
*309 FILLER_0_0_309
*310 FILLER_0_0_321
*311 FILLER_0_0_333
*312 FILLER_0_0_337
*313 FILLER_0_0_349
*314 FILLER_0_0_357
*315 FILLER_0_0_362
*316 FILLER_0_0_365
*317 FILLER_0_0_377
*318 FILLER_0_0_385
*319 FILLER_0_0_393
*320 FILLER_0_0_405
*321 FILLER_0_0_41
*322 FILLER_0_0_411
*323 FILLER_0_0_419
*324 FILLER_0_0_424
*325 FILLER_0_0_428
*326 FILLER_0_0_53
*327 FILLER_0_0_57
*328 FILLER_0_0_69
*329 FILLER_0_0_73
*330 FILLER_0_0_77
*331 FILLER_0_0_83
*332 FILLER_0_0_85
*333 FILLER_0_0_97
*334 FILLER_0_100_109
*335 FILLER_0_100_121
*336 FILLER_0_100_133
*337 FILLER_0_100_139
*338 FILLER_0_100_141
*339 FILLER_0_100_15
*340 FILLER_0_100_153
*341 FILLER_0_100_165
*342 FILLER_0_100_177
*343 FILLER_0_100_189
*344 FILLER_0_100_195
*345 FILLER_0_100_197
*346 FILLER_0_100_209
*347 FILLER_0_100_221
*348 FILLER_0_100_233
*349 FILLER_0_100_245
*350 FILLER_0_100_251
*351 FILLER_0_100_253
*352 FILLER_0_100_265
*353 FILLER_0_100_27
*354 FILLER_0_100_277
*355 FILLER_0_100_289
*356 FILLER_0_100_29
*357 FILLER_0_100_3
*358 FILLER_0_100_301
*359 FILLER_0_100_307
*360 FILLER_0_100_309
*361 FILLER_0_100_321
*362 FILLER_0_100_333
*363 FILLER_0_100_345
*364 FILLER_0_100_357
*365 FILLER_0_100_363
*366 FILLER_0_100_365
*367 FILLER_0_100_377
*368 FILLER_0_100_389
*369 FILLER_0_100_401
*370 FILLER_0_100_41
*371 FILLER_0_100_413
*372 FILLER_0_100_419
*373 FILLER_0_100_421
*374 FILLER_0_100_76
*375 FILLER_0_100_85
*376 FILLER_0_100_97
*377 FILLER_0_101_105
*378 FILLER_0_101_111
*379 FILLER_0_101_113
*380 FILLER_0_101_125
*381 FILLER_0_101_137
*382 FILLER_0_101_149
*383 FILLER_0_101_15
*384 FILLER_0_101_161
*385 FILLER_0_101_167
*386 FILLER_0_101_169
*387 FILLER_0_101_181
*388 FILLER_0_101_193
*389 FILLER_0_101_205
*390 FILLER_0_101_217
*391 FILLER_0_101_223
*392 FILLER_0_101_225
*393 FILLER_0_101_237
*394 FILLER_0_101_249
*395 FILLER_0_101_261
*396 FILLER_0_101_273
*397 FILLER_0_101_279
*398 FILLER_0_101_281
*399 FILLER_0_101_293
*400 FILLER_0_101_3
*401 FILLER_0_101_305
*402 FILLER_0_101_309
*403 FILLER_0_101_319
*404 FILLER_0_101_331
*405 FILLER_0_101_335
*406 FILLER_0_101_337
*407 FILLER_0_101_349
*408 FILLER_0_101_357
*409 FILLER_0_101_385
*410 FILLER_0_101_391
*411 FILLER_0_101_393
*412 FILLER_0_101_405
*413 FILLER_0_101_417
*414 FILLER_0_101_55
*415 FILLER_0_101_57
*416 FILLER_0_101_69
*417 FILLER_0_101_81
*418 FILLER_0_101_93
*419 FILLER_0_102_109
*420 FILLER_0_102_121
*421 FILLER_0_102_133
*422 FILLER_0_102_139
*423 FILLER_0_102_141
*424 FILLER_0_102_15
*425 FILLER_0_102_153
*426 FILLER_0_102_165
*427 FILLER_0_102_177
*428 FILLER_0_102_189
*429 FILLER_0_102_195
*430 FILLER_0_102_197
*431 FILLER_0_102_209
*432 FILLER_0_102_221
*433 FILLER_0_102_233
*434 FILLER_0_102_245
*435 FILLER_0_102_251
*436 FILLER_0_102_253
*437 FILLER_0_102_265
*438 FILLER_0_102_27
*439 FILLER_0_102_277
*440 FILLER_0_102_289
*441 FILLER_0_102_29
*442 FILLER_0_102_3
*443 FILLER_0_102_301
*444 FILLER_0_102_307
*445 FILLER_0_102_309
*446 FILLER_0_102_321
*447 FILLER_0_102_333
*448 FILLER_0_102_345
*449 FILLER_0_102_357
*450 FILLER_0_102_363
*451 FILLER_0_102_365
*452 FILLER_0_102_377
*453 FILLER_0_102_389
*454 FILLER_0_102_401
*455 FILLER_0_102_41
*456 FILLER_0_102_413
*457 FILLER_0_102_419
*458 FILLER_0_102_425
*459 FILLER_0_102_53
*460 FILLER_0_102_65
*461 FILLER_0_102_77
*462 FILLER_0_102_83
*463 FILLER_0_102_85
*464 FILLER_0_102_97
*465 FILLER_0_103_105
*466 FILLER_0_103_111
*467 FILLER_0_103_113
*468 FILLER_0_103_125
*469 FILLER_0_103_137
*470 FILLER_0_103_149
*471 FILLER_0_103_15
*472 FILLER_0_103_161
*473 FILLER_0_103_167
*474 FILLER_0_103_169
*475 FILLER_0_103_181
*476 FILLER_0_103_193
*477 FILLER_0_103_205
*478 FILLER_0_103_217
*479 FILLER_0_103_223
*480 FILLER_0_103_225
*481 FILLER_0_103_237
*482 FILLER_0_103_249
*483 FILLER_0_103_261
*484 FILLER_0_103_27
*485 FILLER_0_103_273
*486 FILLER_0_103_279
*487 FILLER_0_103_281
*488 FILLER_0_103_293
*489 FILLER_0_103_3
*490 FILLER_0_103_305
*491 FILLER_0_103_317
*492 FILLER_0_103_329
*493 FILLER_0_103_335
*494 FILLER_0_103_337
*495 FILLER_0_103_349
*496 FILLER_0_103_361
*497 FILLER_0_103_373
*498 FILLER_0_103_385
*499 FILLER_0_103_39
*500 FILLER_0_103_391
*501 FILLER_0_103_393
*502 FILLER_0_103_405
*503 FILLER_0_103_422
*504 FILLER_0_103_428
*505 FILLER_0_103_51
*506 FILLER_0_103_55
*507 FILLER_0_103_57
*508 FILLER_0_103_69
*509 FILLER_0_103_81
*510 FILLER_0_103_93
*511 FILLER_0_104_109
*512 FILLER_0_104_121
*513 FILLER_0_104_133
*514 FILLER_0_104_139
*515 FILLER_0_104_141
*516 FILLER_0_104_15
*517 FILLER_0_104_153
*518 FILLER_0_104_165
*519 FILLER_0_104_177
*520 FILLER_0_104_189
*521 FILLER_0_104_195
*522 FILLER_0_104_197
*523 FILLER_0_104_209
*524 FILLER_0_104_221
*525 FILLER_0_104_233
*526 FILLER_0_104_245
*527 FILLER_0_104_251
*528 FILLER_0_104_253
*529 FILLER_0_104_265
*530 FILLER_0_104_27
*531 FILLER_0_104_277
*532 FILLER_0_104_289
*533 FILLER_0_104_29
*534 FILLER_0_104_3
*535 FILLER_0_104_301
*536 FILLER_0_104_307
*537 FILLER_0_104_309
*538 FILLER_0_104_321
*539 FILLER_0_104_333
*540 FILLER_0_104_345
*541 FILLER_0_104_357
*542 FILLER_0_104_363
*543 FILLER_0_104_365
*544 FILLER_0_104_377
*545 FILLER_0_104_389
*546 FILLER_0_104_401
*547 FILLER_0_104_41
*548 FILLER_0_104_413
*549 FILLER_0_104_419
*550 FILLER_0_104_421
*551 FILLER_0_104_53
*552 FILLER_0_104_65
*553 FILLER_0_104_69
*554 FILLER_0_104_73
*555 FILLER_0_104_81
*556 FILLER_0_104_85
*557 FILLER_0_104_97
*558 FILLER_0_105_105
*559 FILLER_0_105_111
*560 FILLER_0_105_113
*561 FILLER_0_105_125
*562 FILLER_0_105_137
*563 FILLER_0_105_149
*564 FILLER_0_105_15
*565 FILLER_0_105_161
*566 FILLER_0_105_167
*567 FILLER_0_105_169
*568 FILLER_0_105_181
*569 FILLER_0_105_193
*570 FILLER_0_105_205
*571 FILLER_0_105_217
*572 FILLER_0_105_223
*573 FILLER_0_105_225
*574 FILLER_0_105_237
*575 FILLER_0_105_249
*576 FILLER_0_105_261
*577 FILLER_0_105_27
*578 FILLER_0_105_273
*579 FILLER_0_105_279
*580 FILLER_0_105_281
*581 FILLER_0_105_293
*582 FILLER_0_105_3
*583 FILLER_0_105_305
*584 FILLER_0_105_317
*585 FILLER_0_105_329
*586 FILLER_0_105_335
*587 FILLER_0_105_337
*588 FILLER_0_105_349
*589 FILLER_0_105_361
*590 FILLER_0_105_373
*591 FILLER_0_105_385
*592 FILLER_0_105_39
*593 FILLER_0_105_391
*594 FILLER_0_105_393
*595 FILLER_0_105_405
*596 FILLER_0_105_417
*597 FILLER_0_105_51
*598 FILLER_0_105_55
*599 FILLER_0_105_57
*600 FILLER_0_105_69
*601 FILLER_0_105_81
*602 FILLER_0_105_93
*603 FILLER_0_106_109
*604 FILLER_0_106_121
*605 FILLER_0_106_133
*606 FILLER_0_106_139
*607 FILLER_0_106_141
*608 FILLER_0_106_15
*609 FILLER_0_106_153
*610 FILLER_0_106_165
*611 FILLER_0_106_177
*612 FILLER_0_106_189
*613 FILLER_0_106_195
*614 FILLER_0_106_197
*615 FILLER_0_106_209
*616 FILLER_0_106_221
*617 FILLER_0_106_233
*618 FILLER_0_106_245
*619 FILLER_0_106_251
*620 FILLER_0_106_253
*621 FILLER_0_106_259
*622 FILLER_0_106_27
*623 FILLER_0_106_271
*624 FILLER_0_106_283
*625 FILLER_0_106_29
*626 FILLER_0_106_295
*627 FILLER_0_106_3
*628 FILLER_0_106_307
*629 FILLER_0_106_309
*630 FILLER_0_106_321
*631 FILLER_0_106_333
*632 FILLER_0_106_345
*633 FILLER_0_106_357
*634 FILLER_0_106_363
*635 FILLER_0_106_365
*636 FILLER_0_106_377
*637 FILLER_0_106_389
*638 FILLER_0_106_397
*639 FILLER_0_106_403
*640 FILLER_0_106_41
*641 FILLER_0_106_415
*642 FILLER_0_106_419
*643 FILLER_0_106_421
*644 FILLER_0_106_53
*645 FILLER_0_106_65
*646 FILLER_0_106_77
*647 FILLER_0_106_83
*648 FILLER_0_106_85
*649 FILLER_0_106_97
*650 FILLER_0_107_105
*651 FILLER_0_107_111
*652 FILLER_0_107_113
*653 FILLER_0_107_125
*654 FILLER_0_107_137
*655 FILLER_0_107_149
*656 FILLER_0_107_15
*657 FILLER_0_107_161
*658 FILLER_0_107_167
*659 FILLER_0_107_169
*660 FILLER_0_107_181
*661 FILLER_0_107_193
*662 FILLER_0_107_205
*663 FILLER_0_107_217
*664 FILLER_0_107_223
*665 FILLER_0_107_225
*666 FILLER_0_107_237
*667 FILLER_0_107_249
*668 FILLER_0_107_261
*669 FILLER_0_107_27
*670 FILLER_0_107_273
*671 FILLER_0_107_279
*672 FILLER_0_107_281
*673 FILLER_0_107_293
*674 FILLER_0_107_3
*675 FILLER_0_107_305
*676 FILLER_0_107_317
*677 FILLER_0_107_329
*678 FILLER_0_107_335
*679 FILLER_0_107_337
*680 FILLER_0_107_349
*681 FILLER_0_107_361
*682 FILLER_0_107_373
*683 FILLER_0_107_385
*684 FILLER_0_107_39
*685 FILLER_0_107_391
*686 FILLER_0_107_393
*687 FILLER_0_107_405
*688 FILLER_0_107_417
*689 FILLER_0_107_51
*690 FILLER_0_107_55
*691 FILLER_0_107_57
*692 FILLER_0_107_69
*693 FILLER_0_107_81
*694 FILLER_0_107_93
*695 FILLER_0_108_109
*696 FILLER_0_108_121
*697 FILLER_0_108_133
*698 FILLER_0_108_139
*699 FILLER_0_108_141
*700 FILLER_0_108_15
*701 FILLER_0_108_153
*702 FILLER_0_108_165
*703 FILLER_0_108_177
*704 FILLER_0_108_189
*705 FILLER_0_108_195
*706 FILLER_0_108_197
*707 FILLER_0_108_209
*708 FILLER_0_108_221
*709 FILLER_0_108_233
*710 FILLER_0_108_245
*711 FILLER_0_108_251
*712 FILLER_0_108_253
*713 FILLER_0_108_265
*714 FILLER_0_108_27
*715 FILLER_0_108_277
*716 FILLER_0_108_289
*717 FILLER_0_108_29
*718 FILLER_0_108_3
*719 FILLER_0_108_301
*720 FILLER_0_108_307
*721 FILLER_0_108_309
*722 FILLER_0_108_321
*723 FILLER_0_108_333
*724 FILLER_0_108_345
*725 FILLER_0_108_357
*726 FILLER_0_108_363
*727 FILLER_0_108_365
*728 FILLER_0_108_377
*729 FILLER_0_108_389
*730 FILLER_0_108_401
*731 FILLER_0_108_41
*732 FILLER_0_108_413
*733 FILLER_0_108_419
*734 FILLER_0_108_421
*735 FILLER_0_108_53
*736 FILLER_0_108_65
*737 FILLER_0_108_77
*738 FILLER_0_108_83
*739 FILLER_0_108_85
*740 FILLER_0_108_97
*741 FILLER_0_109_105
*742 FILLER_0_109_111
*743 FILLER_0_109_113
*744 FILLER_0_109_125
*745 FILLER_0_109_137
*746 FILLER_0_109_149
*747 FILLER_0_109_15
*748 FILLER_0_109_161
*749 FILLER_0_109_167
*750 FILLER_0_109_169
*751 FILLER_0_109_181
*752 FILLER_0_109_193
*753 FILLER_0_109_205
*754 FILLER_0_109_217
*755 FILLER_0_109_223
*756 FILLER_0_109_225
*757 FILLER_0_109_237
*758 FILLER_0_109_249
*759 FILLER_0_109_261
*760 FILLER_0_109_269
*761 FILLER_0_109_27
*762 FILLER_0_109_274
*763 FILLER_0_109_281
*764 FILLER_0_109_293
*765 FILLER_0_109_3
*766 FILLER_0_109_305
*767 FILLER_0_109_317
*768 FILLER_0_109_329
*769 FILLER_0_109_335
*770 FILLER_0_109_337
*771 FILLER_0_109_349
*772 FILLER_0_109_361
*773 FILLER_0_109_373
*774 FILLER_0_109_385
*775 FILLER_0_109_39
*776 FILLER_0_109_391
*777 FILLER_0_109_393
*778 FILLER_0_109_405
*779 FILLER_0_109_417
*780 FILLER_0_109_51
*781 FILLER_0_109_55
*782 FILLER_0_109_57
*783 FILLER_0_109_69
*784 FILLER_0_109_81
*785 FILLER_0_109_93
*786 FILLER_0_10_100
*787 FILLER_0_10_112
*788 FILLER_0_10_124
*789 FILLER_0_10_136
*790 FILLER_0_10_141
*791 FILLER_0_10_15
*792 FILLER_0_10_153
*793 FILLER_0_10_165
*794 FILLER_0_10_177
*795 FILLER_0_10_185
*796 FILLER_0_10_189
*797 FILLER_0_10_194
*798 FILLER_0_10_197
*799 FILLER_0_10_209
*800 FILLER_0_10_221
*801 FILLER_0_10_233
*802 FILLER_0_10_245
*803 FILLER_0_10_251
*804 FILLER_0_10_253
*805 FILLER_0_10_265
*806 FILLER_0_10_27
*807 FILLER_0_10_277
*808 FILLER_0_10_289
*809 FILLER_0_10_29
*810 FILLER_0_10_3
*811 FILLER_0_10_301
*812 FILLER_0_10_307
*813 FILLER_0_10_309
*814 FILLER_0_10_321
*815 FILLER_0_10_333
*816 FILLER_0_10_345
*817 FILLER_0_10_357
*818 FILLER_0_10_363
*819 FILLER_0_10_365
*820 FILLER_0_10_377
*821 FILLER_0_10_389
*822 FILLER_0_10_401
*823 FILLER_0_10_41
*824 FILLER_0_10_413
*825 FILLER_0_10_419
*826 FILLER_0_10_421
*827 FILLER_0_10_53
*828 FILLER_0_10_65
*829 FILLER_0_10_77
*830 FILLER_0_10_83
*831 FILLER_0_10_88
*832 FILLER_0_110_109
*833 FILLER_0_110_121
*834 FILLER_0_110_133
*835 FILLER_0_110_139
*836 FILLER_0_110_141
*837 FILLER_0_110_15
*838 FILLER_0_110_153
*839 FILLER_0_110_165
*840 FILLER_0_110_177
*841 FILLER_0_110_189
*842 FILLER_0_110_195
*843 FILLER_0_110_197
*844 FILLER_0_110_208
*845 FILLER_0_110_220
*846 FILLER_0_110_232
*847 FILLER_0_110_244
*848 FILLER_0_110_253
*849 FILLER_0_110_265
*850 FILLER_0_110_27
*851 FILLER_0_110_277
*852 FILLER_0_110_289
*853 FILLER_0_110_29
*854 FILLER_0_110_3
*855 FILLER_0_110_301
*856 FILLER_0_110_307
*857 FILLER_0_110_309
*858 FILLER_0_110_321
*859 FILLER_0_110_333
*860 FILLER_0_110_345
*861 FILLER_0_110_357
*862 FILLER_0_110_363
*863 FILLER_0_110_365
*864 FILLER_0_110_377
*865 FILLER_0_110_389
*866 FILLER_0_110_401
*867 FILLER_0_110_41
*868 FILLER_0_110_419
*869 FILLER_0_110_421
*870 FILLER_0_110_425
*871 FILLER_0_110_53
*872 FILLER_0_110_65
*873 FILLER_0_110_77
*874 FILLER_0_110_83
*875 FILLER_0_110_85
*876 FILLER_0_110_97
*877 FILLER_0_111_105
*878 FILLER_0_111_111
*879 FILLER_0_111_113
*880 FILLER_0_111_125
*881 FILLER_0_111_137
*882 FILLER_0_111_149
*883 FILLER_0_111_15
*884 FILLER_0_111_161
*885 FILLER_0_111_167
*886 FILLER_0_111_169
*887 FILLER_0_111_181
*888 FILLER_0_111_193
*889 FILLER_0_111_208
*890 FILLER_0_111_220
*891 FILLER_0_111_225
*892 FILLER_0_111_237
*893 FILLER_0_111_249
*894 FILLER_0_111_261
*895 FILLER_0_111_27
*896 FILLER_0_111_273
*897 FILLER_0_111_279
*898 FILLER_0_111_281
*899 FILLER_0_111_293
*900 FILLER_0_111_3
*901 FILLER_0_111_305
*902 FILLER_0_111_317
*903 FILLER_0_111_329
*904 FILLER_0_111_335
*905 FILLER_0_111_337
*906 FILLER_0_111_349
*907 FILLER_0_111_361
*908 FILLER_0_111_373
*909 FILLER_0_111_385
*910 FILLER_0_111_39
*911 FILLER_0_111_391
*912 FILLER_0_111_393
*913 FILLER_0_111_405
*914 FILLER_0_111_417
*915 FILLER_0_111_51
*916 FILLER_0_111_55
*917 FILLER_0_111_57
*918 FILLER_0_111_69
*919 FILLER_0_111_81
*920 FILLER_0_111_93
*921 FILLER_0_112_109
*922 FILLER_0_112_121
*923 FILLER_0_112_133
*924 FILLER_0_112_139
*925 FILLER_0_112_141
*926 FILLER_0_112_15
*927 FILLER_0_112_153
*928 FILLER_0_112_165
*929 FILLER_0_112_177
*930 FILLER_0_112_189
*931 FILLER_0_112_195
*932 FILLER_0_112_197
*933 FILLER_0_112_205
*934 FILLER_0_112_212
*935 FILLER_0_112_224
*936 FILLER_0_112_236
*937 FILLER_0_112_248
*938 FILLER_0_112_253
*939 FILLER_0_112_265
*940 FILLER_0_112_27
*941 FILLER_0_112_277
*942 FILLER_0_112_289
*943 FILLER_0_112_3
*944 FILLER_0_112_301
*945 FILLER_0_112_307
*946 FILLER_0_112_309
*947 FILLER_0_112_321
*948 FILLER_0_112_333
*949 FILLER_0_112_34
*950 FILLER_0_112_345
*951 FILLER_0_112_357
*952 FILLER_0_112_363
*953 FILLER_0_112_365
*954 FILLER_0_112_377
*955 FILLER_0_112_389
*956 FILLER_0_112_401
*957 FILLER_0_112_413
*958 FILLER_0_112_419
*959 FILLER_0_112_421
*960 FILLER_0_112_46
*961 FILLER_0_112_58
*962 FILLER_0_112_70
*963 FILLER_0_112_82
*964 FILLER_0_112_85
*965 FILLER_0_112_97
*966 FILLER_0_113_105
*967 FILLER_0_113_111
*968 FILLER_0_113_113
*969 FILLER_0_113_125
*970 FILLER_0_113_137
*971 FILLER_0_113_148
*972 FILLER_0_113_15
*973 FILLER_0_113_152
*974 FILLER_0_113_157
*975 FILLER_0_113_165
*976 FILLER_0_113_169
*977 FILLER_0_113_181
*978 FILLER_0_113_193
*979 FILLER_0_113_205
*980 FILLER_0_113_213
*981 FILLER_0_113_217
*982 FILLER_0_113_223
*983 FILLER_0_113_225
*984 FILLER_0_113_237
*985 FILLER_0_113_249
*986 FILLER_0_113_261
*987 FILLER_0_113_27
*988 FILLER_0_113_273
*989 FILLER_0_113_279
*990 FILLER_0_113_281
*991 FILLER_0_113_293
*992 FILLER_0_113_3
*993 FILLER_0_113_305
*994 FILLER_0_113_317
*995 FILLER_0_113_329
*996 FILLER_0_113_335
*997 FILLER_0_113_337
*998 FILLER_0_113_344
*999 FILLER_0_113_356
*1000 FILLER_0_113_368
*1001 FILLER_0_113_380
*1002 FILLER_0_113_39
*1003 FILLER_0_113_393
*1004 FILLER_0_113_405
*1005 FILLER_0_113_417
*1006 FILLER_0_113_51
*1007 FILLER_0_113_55
*1008 FILLER_0_113_57
*1009 FILLER_0_113_69
*1010 FILLER_0_113_81
*1011 FILLER_0_113_93
*1012 FILLER_0_114_118
*1013 FILLER_0_114_130
*1014 FILLER_0_114_138
*1015 FILLER_0_114_141
*1016 FILLER_0_114_15
*1017 FILLER_0_114_153
*1018 FILLER_0_114_161
*1019 FILLER_0_114_165
*1020 FILLER_0_114_175
*1021 FILLER_0_114_187
*1022 FILLER_0_114_195
*1023 FILLER_0_114_197
*1024 FILLER_0_114_209
*1025 FILLER_0_114_221
*1026 FILLER_0_114_233
*1027 FILLER_0_114_245
*1028 FILLER_0_114_251
*1029 FILLER_0_114_253
*1030 FILLER_0_114_265
*1031 FILLER_0_114_269
*1032 FILLER_0_114_27
*1033 FILLER_0_114_272
*1034 FILLER_0_114_281
*1035 FILLER_0_114_29
*1036 FILLER_0_114_293
*1037 FILLER_0_114_3
*1038 FILLER_0_114_305
*1039 FILLER_0_114_309
*1040 FILLER_0_114_321
*1041 FILLER_0_114_333
*1042 FILLER_0_114_345
*1043 FILLER_0_114_357
*1044 FILLER_0_114_363
*1045 FILLER_0_114_365
*1046 FILLER_0_114_377
*1047 FILLER_0_114_389
*1048 FILLER_0_114_401
*1049 FILLER_0_114_41
*1050 FILLER_0_114_413
*1051 FILLER_0_114_419
*1052 FILLER_0_114_421
*1053 FILLER_0_114_53
*1054 FILLER_0_114_65
*1055 FILLER_0_114_77
*1056 FILLER_0_114_83
*1057 FILLER_0_114_85
*1058 FILLER_0_114_97
*1059 FILLER_0_115_101
*1060 FILLER_0_115_110
*1061 FILLER_0_115_113
*1062 FILLER_0_115_125
*1063 FILLER_0_115_137
*1064 FILLER_0_115_149
*1065 FILLER_0_115_15
*1066 FILLER_0_115_161
*1067 FILLER_0_115_167
*1068 FILLER_0_115_169
*1069 FILLER_0_115_181
*1070 FILLER_0_115_193
*1071 FILLER_0_115_205
*1072 FILLER_0_115_217
*1073 FILLER_0_115_223
*1074 FILLER_0_115_225
*1075 FILLER_0_115_233
*1076 FILLER_0_115_243
*1077 FILLER_0_115_255
*1078 FILLER_0_115_267
*1079 FILLER_0_115_27
*1080 FILLER_0_115_279
*1081 FILLER_0_115_281
*1082 FILLER_0_115_293
*1083 FILLER_0_115_3
*1084 FILLER_0_115_305
*1085 FILLER_0_115_317
*1086 FILLER_0_115_329
*1087 FILLER_0_115_335
*1088 FILLER_0_115_337
*1089 FILLER_0_115_349
*1090 FILLER_0_115_361
*1091 FILLER_0_115_373
*1092 FILLER_0_115_385
*1093 FILLER_0_115_39
*1094 FILLER_0_115_391
*1095 FILLER_0_115_393
*1096 FILLER_0_115_405
*1097 FILLER_0_115_417
*1098 FILLER_0_115_51
*1099 FILLER_0_115_55
*1100 FILLER_0_115_57
*1101 FILLER_0_115_69
*1102 FILLER_0_115_81
*1103 FILLER_0_115_93
*1104 FILLER_0_116_109
*1105 FILLER_0_116_121
*1106 FILLER_0_116_133
*1107 FILLER_0_116_139
*1108 FILLER_0_116_141
*1109 FILLER_0_116_15
*1110 FILLER_0_116_153
*1111 FILLER_0_116_165
*1112 FILLER_0_116_177
*1113 FILLER_0_116_189
*1114 FILLER_0_116_195
*1115 FILLER_0_116_197
*1116 FILLER_0_116_209
*1117 FILLER_0_116_221
*1118 FILLER_0_116_233
*1119 FILLER_0_116_245
*1120 FILLER_0_116_251
*1121 FILLER_0_116_253
*1122 FILLER_0_116_265
*1123 FILLER_0_116_27
*1124 FILLER_0_116_277
*1125 FILLER_0_116_289
*1126 FILLER_0_116_29
*1127 FILLER_0_116_3
*1128 FILLER_0_116_301
*1129 FILLER_0_116_307
*1130 FILLER_0_116_309
*1131 FILLER_0_116_321
*1132 FILLER_0_116_333
*1133 FILLER_0_116_345
*1134 FILLER_0_116_357
*1135 FILLER_0_116_363
*1136 FILLER_0_116_365
*1137 FILLER_0_116_377
*1138 FILLER_0_116_389
*1139 FILLER_0_116_401
*1140 FILLER_0_116_41
*1141 FILLER_0_116_413
*1142 FILLER_0_116_419
*1143 FILLER_0_116_421
*1144 FILLER_0_116_53
*1145 FILLER_0_116_57
*1146 FILLER_0_116_60
*1147 FILLER_0_116_72
*1148 FILLER_0_116_85
*1149 FILLER_0_116_97
*1150 FILLER_0_117_105
*1151 FILLER_0_117_111
*1152 FILLER_0_117_113
*1153 FILLER_0_117_125
*1154 FILLER_0_117_137
*1155 FILLER_0_117_149
*1156 FILLER_0_117_15
*1157 FILLER_0_117_161
*1158 FILLER_0_117_167
*1159 FILLER_0_117_169
*1160 FILLER_0_117_181
*1161 FILLER_0_117_193
*1162 FILLER_0_117_205
*1163 FILLER_0_117_217
*1164 FILLER_0_117_223
*1165 FILLER_0_117_225
*1166 FILLER_0_117_237
*1167 FILLER_0_117_240
*1168 FILLER_0_117_247
*1169 FILLER_0_117_259
*1170 FILLER_0_117_27
*1171 FILLER_0_117_271
*1172 FILLER_0_117_279
*1173 FILLER_0_117_281
*1174 FILLER_0_117_293
*1175 FILLER_0_117_3
*1176 FILLER_0_117_305
*1177 FILLER_0_117_317
*1178 FILLER_0_117_329
*1179 FILLER_0_117_335
*1180 FILLER_0_117_337
*1181 FILLER_0_117_349
*1182 FILLER_0_117_361
*1183 FILLER_0_117_373
*1184 FILLER_0_117_385
*1185 FILLER_0_117_39
*1186 FILLER_0_117_391
*1187 FILLER_0_117_393
*1188 FILLER_0_117_405
*1189 FILLER_0_117_417
*1190 FILLER_0_117_51
*1191 FILLER_0_117_55
*1192 FILLER_0_117_57
*1193 FILLER_0_117_69
*1194 FILLER_0_117_81
*1195 FILLER_0_117_93
*1196 FILLER_0_118_109
*1197 FILLER_0_118_121
*1198 FILLER_0_118_133
*1199 FILLER_0_118_139
*1200 FILLER_0_118_141
*1201 FILLER_0_118_15
*1202 FILLER_0_118_153
*1203 FILLER_0_118_165
*1204 FILLER_0_118_177
*1205 FILLER_0_118_189
*1206 FILLER_0_118_195
*1207 FILLER_0_118_197
*1208 FILLER_0_118_209
*1209 FILLER_0_118_221
*1210 FILLER_0_118_233
*1211 FILLER_0_118_245
*1212 FILLER_0_118_251
*1213 FILLER_0_118_253
*1214 FILLER_0_118_265
*1215 FILLER_0_118_27
*1216 FILLER_0_118_277
*1217 FILLER_0_118_289
*1218 FILLER_0_118_29
*1219 FILLER_0_118_3
*1220 FILLER_0_118_301
*1221 FILLER_0_118_307
*1222 FILLER_0_118_309
*1223 FILLER_0_118_321
*1224 FILLER_0_118_333
*1225 FILLER_0_118_345
*1226 FILLER_0_118_357
*1227 FILLER_0_118_363
*1228 FILLER_0_118_365
*1229 FILLER_0_118_377
*1230 FILLER_0_118_389
*1231 FILLER_0_118_401
*1232 FILLER_0_118_41
*1233 FILLER_0_118_413
*1234 FILLER_0_118_419
*1235 FILLER_0_118_421
*1236 FILLER_0_118_53
*1237 FILLER_0_118_57
*1238 FILLER_0_118_62
*1239 FILLER_0_118_74
*1240 FILLER_0_118_82
*1241 FILLER_0_118_85
*1242 FILLER_0_118_97
*1243 FILLER_0_119_105
*1244 FILLER_0_119_111
*1245 FILLER_0_119_113
*1246 FILLER_0_119_125
*1247 FILLER_0_119_137
*1248 FILLER_0_119_15
*1249 FILLER_0_119_154
*1250 FILLER_0_119_166
*1251 FILLER_0_119_169
*1252 FILLER_0_119_181
*1253 FILLER_0_119_193
*1254 FILLER_0_119_205
*1255 FILLER_0_119_217
*1256 FILLER_0_119_223
*1257 FILLER_0_119_225
*1258 FILLER_0_119_237
*1259 FILLER_0_119_249
*1260 FILLER_0_119_261
*1261 FILLER_0_119_27
*1262 FILLER_0_119_273
*1263 FILLER_0_119_279
*1264 FILLER_0_119_281
*1265 FILLER_0_119_293
*1266 FILLER_0_119_3
*1267 FILLER_0_119_305
*1268 FILLER_0_119_317
*1269 FILLER_0_119_329
*1270 FILLER_0_119_335
*1271 FILLER_0_119_337
*1272 FILLER_0_119_349
*1273 FILLER_0_119_361
*1274 FILLER_0_119_373
*1275 FILLER_0_119_385
*1276 FILLER_0_119_39
*1277 FILLER_0_119_391
*1278 FILLER_0_119_393
*1279 FILLER_0_119_405
*1280 FILLER_0_119_417
*1281 FILLER_0_119_51
*1282 FILLER_0_119_55
*1283 FILLER_0_119_57
*1284 FILLER_0_119_69
*1285 FILLER_0_119_81
*1286 FILLER_0_119_93
*1287 FILLER_0_11_105
*1288 FILLER_0_11_111
*1289 FILLER_0_11_113
*1290 FILLER_0_11_125
*1291 FILLER_0_11_137
*1292 FILLER_0_11_149
*1293 FILLER_0_11_15
*1294 FILLER_0_11_161
*1295 FILLER_0_11_167
*1296 FILLER_0_11_169
*1297 FILLER_0_11_181
*1298 FILLER_0_11_193
*1299 FILLER_0_11_205
*1300 FILLER_0_11_217
*1301 FILLER_0_11_223
*1302 FILLER_0_11_225
*1303 FILLER_0_11_237
*1304 FILLER_0_11_249
*1305 FILLER_0_11_261
*1306 FILLER_0_11_27
*1307 FILLER_0_11_273
*1308 FILLER_0_11_279
*1309 FILLER_0_11_281
*1310 FILLER_0_11_293
*1311 FILLER_0_11_3
*1312 FILLER_0_11_305
*1313 FILLER_0_11_317
*1314 FILLER_0_11_329
*1315 FILLER_0_11_335
*1316 FILLER_0_11_337
*1317 FILLER_0_11_349
*1318 FILLER_0_11_361
*1319 FILLER_0_11_373
*1320 FILLER_0_11_385
*1321 FILLER_0_11_39
*1322 FILLER_0_11_391
*1323 FILLER_0_11_393
*1324 FILLER_0_11_405
*1325 FILLER_0_11_417
*1326 FILLER_0_11_51
*1327 FILLER_0_11_55
*1328 FILLER_0_11_57
*1329 FILLER_0_11_69
*1330 FILLER_0_11_81
*1331 FILLER_0_11_93
*1332 FILLER_0_120_109
*1333 FILLER_0_120_121
*1334 FILLER_0_120_13
*1335 FILLER_0_120_133
*1336 FILLER_0_120_139
*1337 FILLER_0_120_141
*1338 FILLER_0_120_153
*1339 FILLER_0_120_165
*1340 FILLER_0_120_177
*1341 FILLER_0_120_189
*1342 FILLER_0_120_195
*1343 FILLER_0_120_197
*1344 FILLER_0_120_209
*1345 FILLER_0_120_221
*1346 FILLER_0_120_233
*1347 FILLER_0_120_245
*1348 FILLER_0_120_25
*1349 FILLER_0_120_251
*1350 FILLER_0_120_253
*1351 FILLER_0_120_257
*1352 FILLER_0_120_263
*1353 FILLER_0_120_275
*1354 FILLER_0_120_287
*1355 FILLER_0_120_29
*1356 FILLER_0_120_299
*1357 FILLER_0_120_3
*1358 FILLER_0_120_307
*1359 FILLER_0_120_309
*1360 FILLER_0_120_321
*1361 FILLER_0_120_333
*1362 FILLER_0_120_345
*1363 FILLER_0_120_357
*1364 FILLER_0_120_365
*1365 FILLER_0_120_377
*1366 FILLER_0_120_389
*1367 FILLER_0_120_401
*1368 FILLER_0_120_41
*1369 FILLER_0_120_413
*1370 FILLER_0_120_419
*1371 FILLER_0_120_421
*1372 FILLER_0_120_53
*1373 FILLER_0_120_59
*1374 FILLER_0_120_71
*1375 FILLER_0_120_83
*1376 FILLER_0_120_85
*1377 FILLER_0_120_9
*1378 FILLER_0_120_97
*1379 FILLER_0_121_103
*1380 FILLER_0_121_111
*1381 FILLER_0_121_113
*1382 FILLER_0_121_125
*1383 FILLER_0_121_137
*1384 FILLER_0_121_149
*1385 FILLER_0_121_15
*1386 FILLER_0_121_161
*1387 FILLER_0_121_167
*1388 FILLER_0_121_169
*1389 FILLER_0_121_181
*1390 FILLER_0_121_193
*1391 FILLER_0_121_205
*1392 FILLER_0_121_217
*1393 FILLER_0_121_223
*1394 FILLER_0_121_225
*1395 FILLER_0_121_237
*1396 FILLER_0_121_249
*1397 FILLER_0_121_261
*1398 FILLER_0_121_27
*1399 FILLER_0_121_273
*1400 FILLER_0_121_279
*1401 FILLER_0_121_281
*1402 FILLER_0_121_293
*1403 FILLER_0_121_3
*1404 FILLER_0_121_305
*1405 FILLER_0_121_317
*1406 FILLER_0_121_329
*1407 FILLER_0_121_335
*1408 FILLER_0_121_345
*1409 FILLER_0_121_357
*1410 FILLER_0_121_369
*1411 FILLER_0_121_381
*1412 FILLER_0_121_389
*1413 FILLER_0_121_39
*1414 FILLER_0_121_393
*1415 FILLER_0_121_405
*1416 FILLER_0_121_417
*1417 FILLER_0_121_51
*1418 FILLER_0_121_55
*1419 FILLER_0_121_57
*1420 FILLER_0_121_70
*1421 FILLER_0_121_82
*1422 FILLER_0_121_91
*1423 FILLER_0_122_109
*1424 FILLER_0_122_121
*1425 FILLER_0_122_133
*1426 FILLER_0_122_139
*1427 FILLER_0_122_141
*1428 FILLER_0_122_15
*1429 FILLER_0_122_153
*1430 FILLER_0_122_165
*1431 FILLER_0_122_177
*1432 FILLER_0_122_189
*1433 FILLER_0_122_195
*1434 FILLER_0_122_197
*1435 FILLER_0_122_209
*1436 FILLER_0_122_221
*1437 FILLER_0_122_233
*1438 FILLER_0_122_245
*1439 FILLER_0_122_251
*1440 FILLER_0_122_253
*1441 FILLER_0_122_265
*1442 FILLER_0_122_27
*1443 FILLER_0_122_277
*1444 FILLER_0_122_289
*1445 FILLER_0_122_29
*1446 FILLER_0_122_3
*1447 FILLER_0_122_301
*1448 FILLER_0_122_307
*1449 FILLER_0_122_309
*1450 FILLER_0_122_321
*1451 FILLER_0_122_333
*1452 FILLER_0_122_345
*1453 FILLER_0_122_357
*1454 FILLER_0_122_363