*SPEF "ieee 1481-1999"
*DESIGN "twos_complement"
*DATE "19:26:54 Friday April 25, 2025"
*VENDOR "The OpenROAD Project"
*PROGRAM "OpenROAD"
*VERSION "b16bda7e82721d10566ff7e2b68f1ff0be9f9e38"
*DESIGN_FLOW "NAME_SCOPE LOCAL" "PIN_CAP NONE"
*DIVIDER /
*DELIMITER :
*BUS_DELIMITER []
*T_UNIT 1 NS
*C_UNIT 1 PF
*R_UNIT 1 OHM
*L_UNIT 1 HENRY

*NAME_MAP
*3 in[0]
*4 in[1]
*5 in[2]
*6 in[3]
*7 in[4]
*8 in[5]
*9 in[6]
*10 in[7]
*11 out[0]
*12 out[1]
*13 out[2]
*14 out[3]
*15 out[4]
*16 out[5]
*17 out[6]
*18 out[7]
*19 _00_
*20 _01_
*21 _02_
*22 _03_
*23 _04_
*24 _05_
*25 _06_
*26 _07_
*27 _08_
*28 _09_
*29 net1
*30 net10
*31 net11
*32 net12
*33 net13
*34 net14
*35 net15
*36 net16
*37 net2
*38 net3
*39 net4
*40 net5
*41 net6
*42 net7
*43 net8
*44 net9
*45 FILLER_0_0_21
*46 FILLER_0_0_27
*47 FILLER_0_0_29
*48 FILLER_0_0_37
*49 FILLER_0_0_9
*50 FILLER_0_10_18
*51 FILLER_0_10_26
*52 FILLER_0_10_29
*53 FILLER_0_10_33
*54 FILLER_0_10_41
*55 FILLER_0_10_6
*56 FILLER_0_11_15
*57 FILLER_0_11_22
*58 FILLER_0_11_3
*59 FILLER_0_11_34
*60 FILLER_0_11_41
*61 FILLER_0_11_47
*62 FILLER_0_12_21
*63 FILLER_0_12_27
*64 FILLER_0_12_29
*65 FILLER_0_12_33
*66 FILLER_0_12_39
*67 FILLER_0_12_9
*68 FILLER_0_1_15
*69 FILLER_0_1_23
*70 FILLER_0_1_27
*71 FILLER_0_1_3
*72 FILLER_0_1_39
*73 FILLER_0_1_47
*74 FILLER_0_2_15
*75 FILLER_0_2_24
*76 FILLER_0_2_29
*77 FILLER_0_2_3
*78 FILLER_0_2_41
*79 FILLER_0_2_47
*80 FILLER_0_3_14
*81 FILLER_0_3_26
*82 FILLER_0_3_30
*83 FILLER_0_3_36
*84 FILLER_0_4_15
*85 FILLER_0_4_26
*86 FILLER_0_4_29
*87 FILLER_0_4_3
*88 FILLER_0_4_41
*89 FILLER_0_4_47
*90 FILLER_0_5_14
*91 FILLER_0_5_18
*92 FILLER_0_5_30
*93 FILLER_0_5_42
*94 FILLER_0_5_6
*95 FILLER_0_6_15
*96 FILLER_0_6_22
*97 FILLER_0_6_29
*98 FILLER_0_6_3
*99 FILLER_0_6_41
*100 FILLER_0_6_47
*101 FILLER_0_7_18
*102 FILLER_0_7_30
*103 FILLER_0_7_42
*104 FILLER_0_7_6
*105 FILLER_0_8_13
*106 FILLER_0_8_25
*107 FILLER_0_8_29
*108 FILLER_0_8_41
*109 FILLER_0_9_20
*110 FILLER_0_9_3
*111 FILLER_0_9_32
*112 FILLER_0_9_44
*113 PHY_EDGE_ROW_0_Left_13
*114 PHY_EDGE_ROW_0_Right_0
*115 PHY_EDGE_ROW_10_Left_23
*116 PHY_EDGE_ROW_10_Right_10
*117 PHY_EDGE_ROW_11_Left_24
*118 PHY_EDGE_ROW_11_Right_11
*119 PHY_EDGE_ROW_12_Left_25
*120 PHY_EDGE_ROW_12_Right_12
*121 PHY_EDGE_ROW_1_Left_14
*122 PHY_EDGE_ROW_1_Right_1
*123 PHY_EDGE_ROW_2_Left_15
*124 PHY_EDGE_ROW_2_Right_2
*125 PHY_EDGE_ROW_3_Left_16
*126 PHY_EDGE_ROW_3_Right_3
*127 PHY_EDGE_ROW_4_Left_17
*128 PHY_EDGE_ROW_4_Right_4
*129 PHY_EDGE_ROW_5_Left_18
*130 PHY_EDGE_ROW_5_Right_5
*131 PHY_EDGE_ROW_6_Left_19
*132 PHY_EDGE_ROW_6_Right_6
*133 PHY_EDGE_ROW_7_Left_20
*134 PHY_EDGE_ROW_7_Right_7
*135 PHY_EDGE_ROW_8_Left_21
*136 PHY_EDGE_ROW_8_Right_8
*137 PHY_EDGE_ROW_9_Left_22
*138 PHY_EDGE_ROW_9_Right_9
*139 TAP_TAPCELL_ROW_0_26
*140 TAP_TAPCELL_ROW_10_31
*141 TAP_TAPCELL_ROW_12_32
*142 TAP_TAPCELL_ROW_2_27
*143 TAP_TAPCELL_ROW_4_28
*144 TAP_TAPCELL_ROW_6_29
*145 TAP_TAPCELL_ROW_8_30
*146 _10_
*147 _11_
*148 _12_
*149 _13_
*150 _14_
*151 _15_
*152 _16_
*153 _17_
*154 _18_
*155 _19_
*156 _20_
*157 _21_
*158 _22_
*159 _23_
*160 _24_
*161 _25_
*162 _26_
*163 _27_
*164 input1
*165 input2
*166 input3
*167 input4
*168 input5
*169 input6
*170 input7
*171 input8
*172 output10
*173 output11
*174 output12
*175 output13
*176 output14
*177 output15
*178 output16
*179 output9

*PORTS
in[0] I
in[1] I
in[2] I
in[3] I
in[4] I
in[5] I
in[6] I
in[7] I
out[0] O
out[1] O
out[2] O
out[3] O
out[4] O
out[5] O
out[6] O
out[7] O

*D_NET *3 0.00101438
*CONN
*P in[0] I
*I *164:A I *D sky130_fd_sc_hd__buf_1
*CAP
1 in[0] 0.000507191
2 *164:A 0.000507191
3 *164:A *165:A 0
*RES
1 in[0] *164:A 10.2018 
*END

*D_NET *4 0.000747765
*CONN
*P in[1] I
*I *165:A I *D sky130_fd_sc_hd__buf_1
*CAP
1 in[1] 0.000373882
2 *165:A 0.000373882
3 *165:A *166:A 0
4 *164:A *165:A 0
*RES
1 in[1] *165:A 8.2293 
*END

*D_NET *5 0.000538506
*CONN
*P in[2] I
*I *166:A I *D sky130_fd_sc_hd__buf_1
*CAP
1 in[2] 0.000269253
2 *166:A 0.000269253
3 *166:A *167:A 0
4 *165:A *166:A 0
*RES
1 in[2] *166:A 6.8343 
*END

*D_NET *6 0.00056857
*CONN
*P in[3] I
*I *167:A I *D sky130_fd_sc_hd__clkbuf_1
*CAP
1 in[3] 0.000284285
2 *167:A 0.000284285
3 *167:A *168:A 0
4 *166:A *167:A 0
*RES
1 in[3] *167:A 7.0893 
*END

*D_NET *7 0.0005615
*CONN
*P in[4] I
*I *168:A I *D sky130_fd_sc_hd__buf_1
*CAP
1 in[4] 0.00028075
2 *168:A 0.00028075
3 *168:A *169:A 0
4 *168:A *29:20 0
5 *167:A *168:A 0
*RES
1 in[4] *168:A 7.0893 
*END

*D_NET *8 0.000666425
*CONN
*P in[5] I
*I *169:A I *D sky130_fd_sc_hd__buf_1
*CAP
1 in[5] 0.000333212
2 *169:A 0.000333212
3 *169:A *170:A 0
4 *169:A *29:20 0
5 *168:A *169:A 0
*RES
1 in[5] *169:A 8.1093 
*END

*D_NET *9 0.000523624
*CONN
*P in[6] I
*I *170:A I *D sky130_fd_sc_hd__buf_1
*CAP
1 in[6] 0.000261812
2 *170:A 0.000261812
3 *170:A *171:A 0
4 *169:A *170:A 0
*RES
1 in[6] *170:A 6.8343 
*END

*D_NET *10 0.00115517
*CONN
*P in[7] I
*I *171:A I *D sky130_fd_sc_hd__buf_1
*CAP
1 in[7] 0.000577586
2 *171:A 0.000577586
3 *170:A *171:A 0
*RES
1 in[7] *171:A 10.6316 
*END

*D_NET *11 0.00109227
*CONN
*P out[0] O
*I *179:X O *D sky130_fd_sc_hd__buf_2
*CAP
1 out[0] 0.000546133
2 *179:X 0.000546133
3 out[0] out[1] 0
*RES
1 *179:X out[0] 9.66983 
*END

*D_NET *12 0.000411239
*CONN
*P out[1] O
*I *172:X O *D sky130_fd_sc_hd__buf_2
*CAP
1 out[1] 0.00020562
2 *172:X 0.00020562
3 out[1] out[2] 0
4 out[0] out[1] 0
*RES
1 *172:X out[1] 4.84677 
*END

*D_NET *13 0.000410041
*CONN
*P out[2] O
*I *173:X O *D sky130_fd_sc_hd__buf_2
*CAP
1 out[2] 0.00020502
2 *173:X 0.00020502
3 out[2] out[3] 0
4 out[2] *172:A 0
5 out[1] out[2] 0
*RES
1 *173:X out[2] 4.84677 
*END

*D_NET *14 0.000548759
*CONN
*P out[3] O
*I *174:X O *D sky130_fd_sc_hd__buf_2
*CAP
1 out[3] 0.000253408
2 *174:X 0.000253408
3 out[3] out[4] 0
4 out[3] *178:A 4.19426e-05
5 out[2] out[3] 0
*RES
1 *174:X out[3] 5.86677 
*END

*D_NET *15 0.000413735
*CONN
*P out[4] O
*I *175:X O *D sky130_fd_sc_hd__buf_2
*CAP
1 out[4] 0.000202533
2 *175:X 0.000202533
3 out[4] out[5] 0
4 out[4] *178:A 8.66976e-06
5 out[3] out[4] 0
*RES
1 *175:X out[4] 4.84677 
*END

*D_NET *16 0.00054695
*CONN
*P out[5] O
*I *176:X O *D sky130_fd_sc_hd__buf_2
*CAP
1 out[5] 0.000251457
2 *176:X 0.000251457
3 out[5] out[6] 0
4 out[5] *178:A 4.40358e-05
5 out[4] out[5] 0
*RES
1 *176:X out[5] 5.86677 
*END

*D_NET *17 0.000758233
*CONN
*P out[6] O
*I *177:X O *D sky130_fd_sc_hd__buf_2
*CAP
1 out[6] 0.000379117
2 *177:X 0.000379117
3 out[6] out[7] 0
4 out[5] out[6] 0
*RES
1 *177:X out[6] 5.25463 
*END

*D_NET *18 0.000971234
*CONN
*P out[7] O
*I *178:X O *D sky130_fd_sc_hd__clkbuf_4
*CAP
1 out[7] 0.000485617
2 *178:X 0.000485617
3 out[6] out[7] 0
*RES
1 *178:X out[7] 10.1435 
*END

*D_NET *19 0.00434751
*CONN
*I *147:B I *D sky130_fd_sc_hd__xnor2_1
*I *162:A I *D sky130_fd_sc_hd__nor2_1
*I *146:Y O *D sky130_fd_sc_hd__nor2_1
*CAP
1 *147:B 0.000169558
2 *162:A 0.000599452
3 *146:Y 0.000170813
4 *19:12 0.000939823
5 *147:B *147:A 0.000133095
6 *162:A *150:A_N 0.000194157
7 *162:A *154:B 0.000356583
8 *162:A *156:B 7.21296e-06
9 *162:A *156:D 0.000226848
10 *162:A *157:A2 1.23331e-05
11 *162:A *162:B 0.000170527
12 *162:A *21:22 0.000706982
13 *162:A *21:24 0.000281855
14 *162:A *21:63 0.000229897
15 *162:A *23:8 0
16 *162:A *41:23 8.09021e-06
17 *19:12 *147:A 7.47366e-05
18 *19:12 *157:A2 6.55406e-05
*RES
1 *146:Y *19:12 8.81 
2 *19:12 *162:A 24.065 
3 *19:12 *147:B 4.81 
*END

*D_NET *20 0.0020214
*CONN
*I *150:A_N I *D sky130_fd_sc_hd__and2b_1
*I *148:X O *D sky130_fd_sc_hd__o31a_1
*CAP
1 *150:A_N 0.000561472
2 *148:X 0.000561472
3 *150:A_N *151:A 0.00030847
4 *150:A_N *174:A 6.83538e-05
5 *150:A_N *21:22 2.78732e-05
6 *150:A_N *23:8 0.000299598
7 *162:A *150:A_N 0.000194157
*RES
1 *148:X *150:A_N 20.43 
*END

*D_NET *21 0.00701544
*CONN
*I *157:A3 I *D sky130_fd_sc_hd__o31ai_1
*I *152:B I *D sky130_fd_sc_hd__nor2_1
*I *150:B I *D sky130_fd_sc_hd__and2b_1
*I *153:B I *D sky130_fd_sc_hd__and2_1
*I *156:D I *D sky130_fd_sc_hd__or4_1
*I *149:X O *D sky130_fd_sc_hd__or4_2
*CAP
1 *157:A3 0.000220173
2 *152:B 0.000106047
3 *150:B 1.36534e-05
4 *153:B 0.000137381
5 *156:D 0.000151239
6 *149:X 0.000348855
7 *21:63 0.000583709
8 *21:24 0.000441199
9 *21:22 0.000441356
10 *21:12 0.000881467
11 *150:B *154:A 4.66108e-05
12 *150:B *40:8 4.66108e-05
13 *152:B *152:A 2.68721e-05
14 *152:B *157:A2 0
15 *152:B *23:8 0.000185411
16 *153:B *153:A 4.82919e-05
17 *153:B *154:B 0.000163204
18 *153:B *179:A 7.67415e-06
19 *156:D *156:A 0.000158066
20 *156:D *157:B1 0.000159747
21 *156:D *40:10 0
22 *157:A3 *157:A2 0.000150229
23 *21:12 *160:A 2.8185e-05
24 *21:12 *160:B 3.0858e-05
25 *21:12 *178:A 0.000236729
26 *21:22 *151:A 0.000448201
27 *21:22 *157:A2 9.42224e-05
28 *21:22 *175:A 8.40213e-05
29 *21:22 *23:8 0
30 *21:24 *155:B 0
31 *21:24 *40:10 0
32 *21:63 *157:A2 0.000301969
33 *21:63 *23:8 0
34 *150:A_N *21:22 2.78732e-05
35 *162:A *156:D 0.000226848
36 *162:A *21:22 0.000706982
37 *162:A *21:24 0.000281855
38 *162:A *21:63 0.000229897
*RES
1 *149:X *21:12 9 
2 *21:12 *21:22 13.165 
3 *21:22 *21:24 3.42 
4 *21:24 *156:D 7.74 
5 *21:24 *153:B 6.24 
6 *21:22 *150:B 4.05 
7 *21:12 *21:63 7.76 
8 *21:63 *152:B 8.255 
9 *21:63 *157:A3 4.48 
*END

*D_NET *22 0.00219947
*CONN
*I *151:A I *D sky130_fd_sc_hd__clkbuf_1
*I *150:X O *D sky130_fd_sc_hd__and2b_1
*CAP
1 *151:A 0.000268697
2 *150:X 0.000268697
3 *151:A *157:A2 0.000448201
4 *151:A *174:A 0.000457201
5 *150:A_N *151:A 0.00030847
6 *21:22 *151:A 0.000448201
*RES
1 *150:X *151:A 17.7 
*END

*D_NET *23 0.00456064
*CONN
*I *154:A I *D sky130_fd_sc_hd__nor2_1
*I *155:B I *D sky130_fd_sc_hd__xnor2_1
*I *152:Y O *D sky130_fd_sc_hd__nor2_1
*CAP
1 *154:A 0.000167088
2 *155:B 0.000277711
3 *152:Y 0.000426719
4 *23:8 0.000871518
5 *154:A *154:B 0.000311754
6 *154:A *175:A 0.000148577
7 *154:A *40:8 0.000325876
8 *155:B *155:A 4.82863e-05
9 *155:B *176:A 9.09197e-05
10 *155:B *40:10 0.000116853
11 *155:B *40:34 4.38051e-05
12 *23:8 *152:A 8.76033e-05
13 *23:8 *40:34 0.00111231
14 *150:A_N *23:8 0.000299598
15 *150:B *154:A 4.66108e-05
16 *152:B *23:8 0.000185411
17 *162:A *23:8 0
18 *21:22 *23:8 0
19 *21:24 *155:B 0
20 *21:63 *23:8 0
*RES
1 *152:Y *23:8 17.475 
2 *23:8 *155:B 8.7 
3 *23:8 *154:A 9.585 
*END

*D_NET *24 0.0019168
*CONN
*I *154:B I *D sky130_fd_sc_hd__nor2_1
*I *153:X O *D sky130_fd_sc_hd__and2_1
*CAP
1 *154:B 0.000239001
2 *153:X 0.000239001
3 *154:B *157:A2 0.000109441
4 *154:B *175:A 0.000311754
5 *154:B *179:A 9.36526e-05
6 *154:B *41:23 9.24049e-05
7 *153:B *154:B 0.000163204
8 *154:A *154:B 0.000311754
9 *162:A *154:B 0.000356583
*RES
1 *153:X *154:B 16.425 
*END

*D_NET *25 0.0024088
*CONN
*I *160:B I *D sky130_fd_sc_hd__xor2_1
*I *158:A I *D sky130_fd_sc_hd__and2_1
*I *156:X O *D sky130_fd_sc_hd__or4_1
*CAP
1 *160:B 0.000335373
2 *158:A 6.14809e-05
3 *156:X 0.000483875
4 *25:10 0.000880729
5 *160:B *157:A2 0
6 *160:B *160:A 0.000276186
7 *25:10 *157:A2 0
8 *25:10 *160:A 0.000340293
9 *25:10 *41:23 0
10 *21:12 *160:B 3.0858e-05
*RES
1 *156:X *25:10 12.24 
2 *25:10 *158:A 4.395 
3 *25:10 *160:B 10.38 
*END

*D_NET *26 0.00296721
*CONN
*I *158:B I *D sky130_fd_sc_hd__and2_1
*I *157:Y O *D sky130_fd_sc_hd__o31ai_1
*CAP
1 *158:B 0.000776013
2 *157:Y 0.000776013
3 *158:B *157:B1 0.000849496
4 *158:B *159:A 0.000565688
5 *158:B *179:A 0
*RES
1 *157:Y *158:B 23.325 
*END

*D_NET *27 0.00160719
*CONN
*I *159:A I *D sky130_fd_sc_hd__clkbuf_1
*I *158:X O *D sky130_fd_sc_hd__and2_1
*CAP
1 *159:A 0.000487832
2 *158:X 0.000487832
3 *159:A *177:A 6.58423e-05
4 *158:B *159:A 0.000565688
*RES
1 *158:X *159:A 11.93 
*END

*D_NET *28 0.00178435
*CONN
*I *162:B I *D sky130_fd_sc_hd__nor2_1
*I *161:X O *D sky130_fd_sc_hd__and2_1
*CAP
1 *162:B 0.000267238
2 *161:X 0.000267238
3 *162:B *156:B 9.30717e-05
4 *162:B *179:A 0.000421361
5 *162:B *41:12 0.000497547
6 *162:B *42:12 6.73665e-05
7 *162:A *162:B 0.000170527
*RES
1 *161:X *162:B 15.81 
*END

*D_NET *29 0.00438348
*CONN
*I *146:B I *D sky130_fd_sc_hd__nor2_1
*I *149:B I *D sky130_fd_sc_hd__or4_2
*I *148:A2 I *D sky130_fd_sc_hd__o31a_1
*I *163:A I *D sky130_fd_sc_hd__clkbuf_1
*I *161:B I *D sky130_fd_sc_hd__and2_1
*I *164:X O *D sky130_fd_sc_hd__buf_1
*CAP
1 *146:B 0.000351651
2 *149:B 3.83463e-05
3 *148:A2 2.42846e-05
4 *163:A 5.01677e-05
5 *161:B 0
6 *164:X 5.8329e-05
7 *29:20 0.00054994
8 *29:12 0.00056477
9 *29:10 0.000296909
10 *29:8 0.00062783
11 *146:B *146:A 0.000424487
12 *148:A2 *148:A3 2.75229e-05
13 *149:B *149:D 1.83847e-05
14 *163:A *41:12 9.66142e-05
15 *29:8 *37:8 3.68769e-05
16 *29:10 *148:A3 3.05373e-05
17 *29:10 *149:D 6.75724e-05
18 *29:10 *37:8 8.08153e-06
19 *29:10 *37:10 0.000105069
20 *29:10 *38:10 7.07801e-05
21 *29:12 *148:A3 6.89263e-05
22 *29:12 *149:D 0.000133763
23 *29:12 *161:A 4.43871e-06
24 *29:12 *37:16 1.97849e-05
25 *29:20 *149:D 9.50342e-06
26 *29:20 *160:A 0
27 *29:20 *161:A 0.000495826
28 *29:20 *39:10 0.00011852
29 *29:20 *41:12 8.45657e-05
30 *168:A *29:20 0
31 *169:A *29:20 0
*RES
1 *164:X *29:8 4.725 
2 *29:8 *29:10 5.205 
3 *29:10 *29:12 1.635 
4 *29:12 *29:20 13.805 
5 *29:20 *161:B 1.6 
6 *29:20 *163:A 2.74 
7 *29:12 *148:A2 4.05 
8 *29:10 *149:B 4.05 
9 *29:8 *146:B 9.585 
*END

*D_NET *30 0.0051586
*CONN
*I *172:A I *D sky130_fd_sc_hd__buf_2
*I *162:Y O *D sky130_fd_sc_hd__nor2_1
*CAP
1 *172:A 0.00121394
2 *162:Y 0.00121394
3 *172:A *177:A 0.00078566
4 *172:A *178:A 0.00131835
5 *172:A *179:A 0.000626715
6 out[2] *172:A 0
*RES
1 *162:Y *172:A 35.745 
*END

*D_NET *31 0.000287867
*CONN
*I *173:A I *D sky130_fd_sc_hd__buf_2
*I *147:Y O *D sky130_fd_sc_hd__xnor2_1
*CAP
1 *173:A 0.000143933
2 *147:Y 0.000143933
3 *173:A *147:A 0
*RES
1 *147:Y *173:A 5.3 
*END

*D_NET *32 0.0025429
*CONN
*I *174:A I *D sky130_fd_sc_hd__buf_2
*I *151:X O *D sky130_fd_sc_hd__clkbuf_1
*CAP
1 *174:A 0.00100867
2 *151:X 0.00100867
3 *150:A_N *174:A 6.83538e-05
4 *151:A *174:A 0.000457201
*RES
1 *151:X *174:A 14.96 
*END

*D_NET *33 0.00184214
*CONN
*I *175:A I *D sky130_fd_sc_hd__buf_2
*I *154:Y O *D sky130_fd_sc_hd__nor2_1
*CAP
1 *175:A 0.000644527
2 *154:Y 0.000644527
3 *175:A *40:8 8.73389e-06
4 *154:A *175:A 0.000148577
5 *154:B *175:A 0.000311754
6 *21:22 *175:A 8.40213e-05
*RES
1 *154:Y *175:A 13.325 
*END

*D_NET *34 0.001567
*CONN
*I *176:A I *D sky130_fd_sc_hd__buf_2
*I *155:Y O *D sky130_fd_sc_hd__xnor2_1
*CAP
1 *176:A 0.000678786
2 *155:Y 0.000678786
3 *176:A *178:A 0.000118513
4 *155:B *176:A 9.09197e-05
*RES
1 *155:Y *176:A 15.24 
*END

*D_NET *35 0.00244071
*CONN
*I *177:A I *D sky130_fd_sc_hd__buf_2
*I *159:X O *D sky130_fd_sc_hd__clkbuf_1
*CAP
1 *177:A 0.000452304
2 *159:X 0.000452304
3 *177:A *157:B1 0
4 *177:A *178:A 0.00014171
5 *177:A *179:A 0.000542895
6 *159:A *177:A 6.58423e-05
7 *172:A *177:A 0.00078566
*RES
1 *159:X *177:A 20.175 
*END

*D_NET *36 0.00480322
*CONN
*I *178:A I *D sky130_fd_sc_hd__clkbuf_4
*I *160:X O *D sky130_fd_sc_hd__xor2_1
*CAP
1 *178:A 0.00144663
2 *160:X 0.00144663
3 out[3] *178:A 4.19426e-05
4 out[4] *178:A 8.66976e-06
5 out[5] *178:A 4.40358e-05
6 *172:A *178:A 0.00131835
7 *176:A *178:A 0.000118513
8 *177:A *178:A 0.00014171
9 *21:12 *178:A 0.000236729
*RES
1 *160:X *178:A 33.54 
*END

*D_NET *37 0.00340893
*CONN
*I *146:A I *D sky130_fd_sc_hd__nor2_1
*I *149:A I *D sky130_fd_sc_hd__or4_2
*I *148:A1 I *D sky130_fd_sc_hd__o31a_1
*I *161:A I *D sky130_fd_sc_hd__and2_1
*I *165:X O *D sky130_fd_sc_hd__buf_1
*CAP
1 *146:A 0.000158922
2 *149:A 3.4192e-05
3 *148:A1 0
4 *161:A 0.000439742
5 *165:X 7.4192e-05
6 *37:16 0.000563292
7 *37:10 0.000343885
8 *37:8 0.000419258
9 *161:A *160:A 0
10 *37:10 *38:10 0.000109009
11 *37:16 *148:A3 0.00013929
12 *37:16 *160:A 0
13 *37:16 *38:10 3.25831e-05
14 *146:B *146:A 0.000424487
15 *29:8 *37:8 3.68769e-05
16 *29:10 *37:8 8.08153e-06
17 *29:10 *37:10 0.000105069
18 *29:12 *161:A 4.43871e-06
19 *29:12 *37:16 1.97849e-05
20 *29:20 *161:A 0.000495826
*RES
1 *165:X *37:8 4.98 
2 *37:8 *37:10 4.185 
3 *37:10 *37:16 2.955 
4 *37:16 *161:A 13.65 
5 *37:16 *148:A1 3.6 
6 *37:10 *149:A 4.05 
7 *37:8 *146:A 7.5 
*END

*D_NET *38 0.00296906
*CONN
*I *147:A I *D sky130_fd_sc_hd__xnor2_1
*I *149:C I *D sky130_fd_sc_hd__or4_2
*I *148:A3 I *D sky130_fd_sc_hd__o31a_1
*I *166:X O *D sky130_fd_sc_hd__buf_1
*CAP
1 *147:A 0.000920957
2 *149:C 0
3 *148:A3 9.94104e-05
4 *166:X 7.91457e-05
5 *38:10 0.000141184
6 *38:6 0.00104188
7 *147:B *147:A 0.000133095
8 *148:A2 *148:A3 2.75229e-05
9 *173:A *147:A 0
10 *19:12 *147:A 7.47366e-05
11 *29:10 *148:A3 3.05373e-05
12 *29:10 *38:10 7.07801e-05
13 *29:12 *148:A3 6.89263e-05
14 *37:10 *38:10 0.000109009
15 *37:16 *148:A3 0.00013929
16 *37:16 *38:10 3.25831e-05
*RES
1 *166:X *38:6 2.395 
2 *38:6 *38:10 3.635 
3 *38:10 *148:A3 6.24 
4 *38:10 *149:C 3.6 
5 *38:6 *147:A 12.325 
*END

*D_NET *39 0.000854925
*CONN
*I *149:D I *D sky130_fd_sc_hd__or4_2
*I *148:B1 I *D sky130_fd_sc_hd__o31a_1
*I *167:X O *D sky130_fd_sc_hd__clkbuf_1
*CAP
1 *149:D 0.000148742
2 *148:B1 0
3 *167:X 0.000104849
4 *39:10 0.000253591
5 *149:B *149:D 1.83847e-05
6 *29:10 *149:D 6.75724e-05
7 *29:12 *149:D 0.000133763
8 *29:20 *149:D 9.50342e-06
9 *29:20 *39:10 0.00011852
*RES
1 *167:X *39:10 5.43 
2 *39:10 *148:B1 3.6 
3 *39:10 *149:D 6.795 
*END

*D_NET *40 0.00695756
*CONN
*I *152:A I *D sky130_fd_sc_hd__nor2_1
*I *157:A1 I *D sky130_fd_sc_hd__o31ai_1
*I *153:A I *D sky130_fd_sc_hd__and2_1
*I *156:A I *D sky130_fd_sc_hd__or4_1
*I *168:X O *D sky130_fd_sc_hd__buf_1
*CAP
1 *152:A 6.69961e-05
2 *157:A1 0.000191546
3 *153:A 4.47959e-05
4 *156:A 0.000323907
5 *168:X 0.000802776
6 *40:34 0.00061951
7 *40:10 0.000544518
8 *40:8 0.00133956
9 *152:A *179:A 0
10 *153:A *179:A 7.10578e-05
11 *156:A *157:B1 0.000247211
12 *157:A1 *157:A2 0.000150322
13 *40:10 *157:B1 0.000121688
14 *40:34 *157:B1 0.000458651
15 *40:34 *179:A 0
16 *150:B *40:8 4.66108e-05
17 *152:B *152:A 2.68721e-05
18 *153:B *153:A 4.82919e-05
19 *154:A *40:8 0.000325876
20 *155:B *40:10 0.000116853
21 *155:B *40:34 4.38051e-05
22 *156:D *156:A 0.000158066
23 *156:D *40:10 0
24 *175:A *40:8 8.73389e-06
25 *21:24 *40:10 0
26 *23:8 *152:A 8.76033e-05
27 *23:8 *40:34 0.00111231
*RES
1 *168:X *40:8 13.02 
2 *40:8 *40:10 3.675 
3 *40:10 *156:A 10.095 
4 *40:10 *153:A 4.74 
5 *40:8 *40:34 13.365 
6 *40:34 *157:A1 6.825 
7 *40:34 *152:A 5.235 
*END

*D_NET *41 0.00512608
*CONN
*I *157:A2 I *D sky130_fd_sc_hd__o31ai_1
*I *155:A I *D sky130_fd_sc_hd__xnor2_1
*I *156:B I *D sky130_fd_sc_hd__or4_1
*I *169:X O *D sky130_fd_sc_hd__buf_1
*CAP
1 *157:A2 0.000883842
2 *155:A 4.51661e-05
3 *156:B 7.22433e-05
4 *169:X 0.00034015
5 *41:23 0.00102062
6 *41:12 0.000504009
7 *151:A *157:A2 0.000448201
8 *152:B *157:A2 0
9 *154:B *157:A2 0.000109441
10 *154:B *41:23 9.24049e-05
11 *155:B *155:A 4.82863e-05
12 *157:A1 *157:A2 0.000150322
13 *157:A3 *157:A2 0.000150229
14 *160:B *157:A2 0
15 *162:A *156:B 7.21296e-06
16 *162:A *157:A2 1.23331e-05
17 *162:A *41:23 8.09021e-06
18 *162:B *156:B 9.30717e-05
19 *162:B *41:12 0.000497547
20 *163:A *41:12 9.66142e-05
21 *19:12 *157:A2 6.55406e-05
22 *21:22 *157:A2 9.42224e-05
23 *21:63 *157:A2 0.000301969
24 *25:10 *157:A2 0
25 *25:10 *41:23 0
26 *29:20 *41:12 8.45657e-05
*RES
1 *169:X *41:12 10.635 
2 *41:12 *156:B 4.98 
3 *41:12 *41:23 2.145 
4 *41:23 *155:A 4.395 
5 *41:23 *157:A2 23.4375 
*END

*D_NET *42 0.00530903
*CONN
*I *157:B1 I *D sky130_fd_sc_hd__o31ai_1
*I *156:C I *D sky130_fd_sc_hd__or4_1
*I *170:X O *D sky130_fd_sc_hd__buf_1
*CAP
1 *157:B1 0.00102579
2 *156:C 0
3 *170:X 0.000577156
4 *42:12 0.00160294
5 *157:B1 *179:A 0
6 *42:12 *160:A 0.00019898
7 *156:A *157:B1 0.000247211
8 *156:D *157:B1 0.000159747
9 *158:B *157:B1 0.000849496
10 *162:B *42:12 6.73665e-05
11 *177:A *157:B1 0
12 *40:10 *157:B1 0.000121688
13 *40:34 *157:B1 0.000458651
*RES
1 *170:X *42:12 14.9 
2 *42:12 *156:C 1.6 
3 *42:12 *157:B1 29.975 
*END

*D_NET *43 0.00305485
*CONN
*I *160:A I *D sky130_fd_sc_hd__xor2_1
*I *171:X O *D sky130_fd_sc_hd__buf_1
*CAP
1 *160:A 0.0011056
2 *171:X 0.0011056
3 *160:B *160:A 0.000276186
4 *161:A *160:A 0
5 *21:12 *160:A 2.8185e-05
6 *25:10 *160:A 0.000340293
7 *29:20 *160:A 0
8 *37:16 *160:A 0
9 *42:12 *160:A 0.00019898
*RES
1 *171:X *160:A 27.78 
*END

*D_NET *44 0.00496068
*CONN
*I *179:A I *D sky130_fd_sc_hd__buf_2
*I *163:X O *D sky130_fd_sc_hd__clkbuf_1
*CAP
1 *179:A 0.00159866
2 *163:X 0.00159866
3 *152:A *179:A 0
4 *153:A *179:A 7.10578e-05
5 *153:B *179:A 7.67415e-06
6 *154:B *179:A 9.36526e-05
7 *157:B1 *179:A 0
8 *158:B *179:A 0
9 *162:B *179:A 0.000421361
10 *172:A *179:A 0.000626715
11 *177:A *179:A 0.000542895
12 *40:34 *179:A 0
*RES
1 *163:X *179:A 35.595 
*END
